# Title
# Created by GaussView 5.0.8
#

#
#

@<TRIPOS>MOLECULE
Molecule Name
207 156
SMALL
NO_CHARGES


@<TRIPOS>ATOM
1 C1     0.0000     0.0000     0.0000 C
2 H2    -1.0835     0.0000     0.0000 H
3 C3     0.7457     1.1053     0.0000 C
4 H4     0.2726     2.0824     0.0000 H
5 H5     1.8291     1.0747    -0.0000 H
6 O6     0.5011    -1.2693     0.0000 O
7 H7     1.4727    -1.2210    -0.0000 H
8 C8     0.9921    -4.1238    -1.7408 C
9 H9     0.4174    -3.3728    -2.3060 H
10 H10     0.5154    -5.1123    -1.6440 H
11 O11     2.0877    -3.8763    -1.2528 O
12 C12     1.2913    -1.5498     3.0022 C
13 H13     0.8915    -0.5232     3.0082 H
14 H14     0.5610    -2.3451     3.2212 H
15 O15     2.4689    -1.7909     2.7679 O
16 C16     0.7628    -1.4400     3.3790 C
17 H17     0.1581    -2.2605     2.9610 H
18 H18     0.2870    -0.8646     4.1892 H
19 O19     1.8886    -1.1845     2.9704 O
20 C20     1.7422    -4.2899    -1.5729 C
21 H21     1.1695    -4.6467    -2.4438 H
22 H22     1.4810    -4.7562    -0.6095 H
23 O23     2.6112    -3.4324    -1.6693 O
24 C24     2.0644    -5.0615    -0.5522 C
25 H25     1.1096    -5.0890    -1.1012 H
26 H26     2.5568    -6.0363    -0.4068 H
27 O27     2.5462    -4.0171    -0.1317 O
28 C28    -0.6208    -3.6533    -1.7129 C
29 H29    -1.2107    -3.6007    -0.7839 H
30 H30     0.3666    -4.1333    -1.6218 H
31 O31    -1.0350    -3.2078    -2.7758 O
32 C32    -1.4350    -3.1072    -2.1140 C
33 H33    -1.3043    -3.4123    -1.0635 H
34 H34    -0.6425    -2.4600    -2.5225 H
35 O35    -2.3969    -3.4635    -2.7829 O
36 C36    -0.8859    -3.8713    -1.7672 C
37 H37    -0.9948    -2.9706    -2.3923 H
38 H38    -1.0716    -3.7276    -0.6909 H
39 O39    -0.5789    -4.9596    -2.2376 O
40 C40     1.8561     0.2129    -3.4655 C
41 H41     1.5542     1.1835    -3.8905 H
42 H42     1.2678    -0.6560    -3.8010 H
43 O43     2.7838     0.1071    -2.6731 O
44 C44    -0.6012    -3.7602    -2.0245 C
45 H45    -1.0665    -2.7629    -2.0761 H
46 H46     0.4407    -3.7802    -1.6671 H
47 O47    -1.2021    -4.7786    -2.3432 O
48 C48    -1.2101    -2.9221    -2.3441 C
49 H49    -1.0395    -3.4360    -1.3846 H
50 H50    -0.6509    -3.3241    -3.2040 H
51 O51    -1.9706    -1.9679    -2.4478 O
52 C52     0.3912    -1.4210     3.0299 C
53 H53     0.3831    -2.4837     2.7395 H
54 H54    -0.5762    -0.8999     2.9511 H
55 O55     1.4077    -0.8568     3.4147 O
56 C56    -0.7187    -3.2372    -2.3740 C
57 H57     0.3761    -3.2449    -2.2511 H
58 H58    -1.2907    -3.7188    -1.5649 H
59 O59    -1.2634    -2.7273    -3.3451 O
60 C60    -4.2700    -1.7634     0.3662 C
61 H61    -3.4948    -2.4529     0.7369 H
62 H62    -5.2876    -2.1812     0.3059 H
63 O63    -4.0174    -0.6096     0.0427 O
64 C64    -0.3908    -2.9303    -2.3320 C
65 H65    -1.3816    -2.8966    -1.8515 H
66 H66    -0.1672    -2.0978    -3.0180 H
67 O67     0.4087    -3.8330    -2.1179 O
68 C68     2.8177    -4.1488     1.4694 C
69 H69     1.8024    -4.5344     1.6544 H
70 H70     3.5148    -4.2199     2.3196 H
71 O71     3.1493    -3.6731     0.3908 O
72 C72    -1.5341    -3.8633    -2.4212 C
73 H73    -0.8947    -4.6993    -2.7467 H
74 H74    -1.0701    -3.1583    -1.7132 H
75 O75    -2.6840    -3.7268    -2.8200 O
76 C76     1.5305    -4.7637    -1.6251 C
77 H77     0.9843    -4.0611    -0.9756 H
78 H78     0.9066    -5.3610    -2.3089 H
79 O79     2.7497    -4.8734    -1.5892 O
80 C80     1.6235    -1.7259     3.8157 C
81 H81     2.2346    -2.3330     4.5025 H
82 H82     0.5359    -1.7655     3.9868 H
83 O83     2.1200    -1.0521     2.9217 O
84 C84    -0.8994    -3.1294    -2.9297 C
85 H85    -1.7481    -2.4460    -3.0925 H
86 H86    -0.6348    -3.3152    -1.8765 H
87 O87    -0.2908    -3.6477    -3.8574 O
88 C88    -0.4823    -3.4687    -3.0999 C
89 H89    -1.1483    -4.2835    -3.4261 H
90 H90    -0.6657    -3.0835    -2.0841 H
91 O91     0.4026    -3.0211    -3.8184 O
92 C92     2.1108    -3.7759    -2.0989 C
93 H93     2.5696    -3.2089    -2.9246 H
94 H94     1.1749    -4.3018    -2.3466 H
95 O95     2.6078    -3.8185    -0.9805 O
96 C96    -1.8530    -3.2811    -2.1961 C
97 H97    -1.3905    -2.8869    -3.1150 H
98 H98    -1.1825    -3.3667    -1.3261 H
99 O99    -3.0336    -3.6027    -2.1451 O
100 C100     1.5723    -4.6287     1.4712 C
101 H101     1.4903    -5.4177     2.2357 H
102 H102     0.9803    -3.7193     1.6621 H
103 O103     2.2744    -4.7541     0.4757 O
104 C104     4.4534     0.8233    -2.7291 C
105 H105     4.7171     1.6770    -3.3736 H
106 H106     4.2266    -0.1172    -3.2561 H
107 O107     4.4150     0.9137    -1.5085 O
108 C108     0.5964    -1.1381     3.2129 C
109 H109    -0.3917    -1.3490     3.6520 H
110 H110     0.7627    -0.0960     2.8963 H
111 O111     1.4528    -2.0041     3.0851 O
112 C112    -0.8671    -1.6383    -2.9386 C
113 H113    -0.8399    -2.5671    -2.3467 H
114 H114     0.1032    -1.1355    -3.0780 H
115 O115    -1.9065    -1.1944    -3.4101 O
116 C116     1.6478    -4.2499    -1.0244 C
117 H117     0.6511    -4.2110    -0.5565 H
118 H118     1.7252    -3.7775    -2.0167 H
119 O119     2.6056    -4.7826    -0.4780 O
120 C120    -0.7600    -3.0010    -3.2984 C
121 H121    -0.2667    -2.1831    -2.7493 H
122 H122    -0.6550    -4.0031    -2.8528 H
123 O123    -1.3834    -2.8090    -4.3349 O
124 C124    -0.9260    -2.1036     3.3825 C
125 H125    -1.8112    -2.0858     2.7269 H
126 H126     0.0440    -1.9851     2.8739 H
127 O127    -1.0144    -2.2455     4.5957 O
128 C128     5.5511     1.2112    -0.7694 C
129 H129     6.4406     0.6106    -0.5209 H
130 H130     5.6370     2.2915    -0.5711 H
131 O131     4.5346     0.7114    -1.2350 O
132 C132    -3.0678    -2.3579    -1.7274 C
133 H133    -3.9528    -2.9606    -1.4680 H
134 H134    -2.1279    -2.9206    -1.8445 H
135 O135    -3.1250    -1.1436    -1.8756 O
136 C136     2.1585    -4.4089    -1.3446 C
137 H137     1.8456    -5.3982    -1.7149 H
138 H138     1.8644    -4.1747    -0.3090 H
139 O139     2.7909    -3.6220    -2.0379 O
140 C140    -1.0145    -2.8972    -3.1501 C
141 H141    -1.5121    -1.9452    -3.3947 H
142 H142    -0.1371    -2.8180    -2.4886 H
143 O143    -1.4102    -3.9717    -3.5845 O
144 C144    -1.4679    -2.8507    -1.8837 C
145 H145    -0.6478    -3.5303    -1.6021 H
146 H146    -2.4527    -3.0906    -1.4519 H
147 O147    -1.2963    -1.8926    -2.6269 O
148 C148    -1.4007    -2.3707     3.3127 C
149 H149    -2.1238    -3.1530     3.5936 H
150 H150    -0.9122    -2.5049     2.3343 H
151 O151    -1.1562    -1.4158     4.0394 O
152 C152    -0.0682    -1.7139     3.3979 C
153 H153    -0.0848    -2.6656     2.8431 H
154 H154     0.5828    -0.9307     2.9777 H
155 O155    -0.7293    -1.5384     4.4137 O
156 C156    -4.6011    -0.7783    -0.7334 C
157 H157    -5.0480    -0.9712    -1.7217 H
158 H158    -4.7015    -1.5938     0.0005 H
159 O159    -4.0307     0.2725    -0.4683 O
160 C160    -4.1366    -1.0738     1.3550 C
161 H161    -5.1398    -1.2872     1.7573 H
162 H162    -3.3277    -1.0191     2.1009 H
163 O163    -3.9342    -0.9085     0.1585 O
164 C164    -4.5817    -0.8399    -0.1935 C
165 H165    -5.3106    -0.9144     0.6292 H
166 H166    -4.3805    -1.7775    -0.7360 H
167 O167    -4.0318     0.2147    -0.4855 O
168 C168     1.1536     0.5112    -3.6418 C
169 H169     0.4398    -0.1505    -4.1579 H
170 H170     1.0899     1.5783    -3.9084 H
171 O171     1.9637     0.0889    -2.8263 O
172 C172     2.6027    -4.4390    -2.4680 C
173 H173     3.4987    -5.0755    -2.3926 H
174 H174     1.8844    -4.7214    -3.2541 H
175 O175     2.4175    -3.4814    -1.7273 O
176 C176     0.9213    -0.7985    -3.6541 C
177 H177     0.3158    -0.2785    -4.4135 H
178 H178     0.8995    -1.8989    -3.7014 H
179 O179     1.5749    -0.1936    -2.8134 O
180 C180     0.2760     0.4951     3.5321 C
181 H181     0.8876    -0.1258     2.8582 H
182 H182    -0.8135     0.4240     3.3850 H
183 O183     0.7741     1.2161     4.3876 O
184 C184     1.6931     2.4657    -3.5346 C
185 H185     0.7740     2.3129    -2.9466 H
186 H186     1.5698     2.4219    -4.6285 H
187 O187     2.7793     2.6705    -3.0074 O
188 C188    -3.5358    -1.7463    -1.3634 C
189 H189    -2.9092    -2.4679    -1.9115 H
190 H190    -4.1575    -2.1718    -0.5595 H
191 O191    -3.5409    -0.5510    -1.6298 O
192 C192     0.7631     1.1991     3.9094 C
193 H193     0.3735     1.5815     2.9525 H
194 H194     0.9682     0.1171     3.9402 H
195 O195     0.9554     1.9281     4.8745 O
196 C196     1.2447     5.9531     0.6112 C
197 H197     1.7626     5.7980     1.5711 H
198 H198     1.3242     6.9668     0.1872 H
199 O199     0.6223     5.0584     0.0528 O
200 C200    -0.6116     1.0505    -3.4058 C
201 H201     0.3578     0.7817    -2.9564 H
202 H202    -0.9134     0.4494    -4.2783 H
203 O203    -1.3071     1.9569    -2.9649 O
204 C204     2.7441    -2.5593    -3.7155 C
205 H205     2.4692    -3.3394    -4.4432 H
206 H206     3.4989    -1.8341    -4.0592 H
207 O207     2.2439    -2.5019    -2.5991 O
@<TRIPOS>BOND
1 1 2 1
2 1 3 1
3 1 6 1
4 3 4 1
5 3 5 1
6 6 7 1
7 8 9 1
8 8 10 1
9 8 11 1
10 12 13 1
11 12 14 1
12 12 15 1
13 16 17 1
14 16 18 1
15 16 19 1
16 20 21 1
17 20 22 1
18 20 23 1
19 24 25 1
20 24 26 1
21 24 27 1
22 28 29 1
23 28 30 1
24 28 31 1
25 32 33 1
26 32 34 1
27 32 35 1
28 36 37 1
29 36 38 1
30 36 39 1
31 40 41 1
32 40 42 1
33 40 43 1
34 44 45 1
35 44 46 1
36 44 47 1
37 48 49 1
38 48 50 1
39 48 51 1
40 52 53 1
41 52 54 1
42 52 55 1
43 56 57 1
44 56 58 1
45 56 59 1
46 60 61 1
47 60 62 1
48 60 63 1
49 64 65 1
50 64 66 1
51 64 67 1
52 68 69 1
53 68 70 1
54 68 71 1
55 72 73 1
56 72 74 1
57 72 75 1
58 76 77 1
59 76 78 1
60 76 79 1
61 80 81 1
62 80 82 1
63 80 83 1
64 84 85 1
65 84 86 1
66 84 87 1
67 88 89 1
68 88 90 1
69 88 91 1
70 92 93 1
71 92 94 1
72 92 95 1
73 96 97 1
74 96 98 1
75 96 99 1
76 100 101 1
77 100 102 1
78 100 103 1
79 104 105 1
80 104 106 1
81 104 107 1
82 108 109 1
83 108 110 1
84 108 111 1
85 112 113 1
86 112 114 1
87 112 115 1
88 116 117 1
89 116 118 1
90 116 119 1
91 120 121 1
92 120 122 1
93 120 123 1
94 124 125 1
95 124 126 1
96 124 127 1
97 128 129 1
98 128 130 1
99 128 131 1
100 132 133 1
101 132 134 1
102 132 135 1
103 136 137 1
104 136 138 1
105 136 139 1
106 140 141 1
107 140 142 1
108 140 143 1
109 144 145 1
110 144 146 1
111 144 147 1
112 148 149 1
113 148 150 1
114 148 151 1
115 152 153 1
116 152 154 1
117 152 155 1
118 156 157 1
119 156 158 1
120 156 159 1
121 160 161 1
122 160 162 1
123 160 163 1
124 164 165 1
125 164 166 1
126 164 167 1
127 168 169 1
128 168 170 1
129 168 171 1
130 172 173 1
131 172 174 1
132 172 175 1
133 176 177 1
134 176 178 1
135 176 179 1
136 180 181 1
137 180 182 1
138 180 183 1
139 184 185 1
140 184 186 1
141 184 187 1
142 188 189 1
143 188 190 1
144 188 191 1
145 192 193 1
146 192 194 1
147 192 195 1
148 196 197 1
149 196 198 1
150 196 199 1
151 200 201 1
152 200 202 1
153 200 203 1
154 204 205 1
155 204 206 1
156 204 207 1
