@<TRIPOS>MOLECULE
Molecule Name
203 153
SMALL
NO_CHARGES

@<TRIPOS>ATOM
1 C1	0.0000	0.0000	0.0000 C
2 H2	-1.0835	0.0000	0.0000 H
3 C3	0.7457	1.1053	0.0000 C
4 H4	0.2726	2.0824	0.0000 H
5 H5	1.8291	1.0747	-0.0000 H
6 O6	0.5011	-1.2693	0.0000 O
7 H7	1.4727	-1.2210	-0.0000 H
8 C8	1.5897	-2.9348	2.8112 C
9 H9	1.6172	-3.6843	3.6182 H
10 H10	0.5948	-2.7355	2.3820 H
11 O11	2.5977	-2.3614	2.4176 O
12 C12	1.6436	-4.1939	-1.1710 C
13 H13	1.7057	-5.2853	-1.0340 H
14 H14	0.6280	-3.7896	-1.3081 H
15 O15	2.6372	-3.4780	-1.1710 O
16 C16	4.3539	-3.5008	-0.4873 C
17 H17	3.6372	-4.3363	-0.4436 H
18 H18	5.3918	-3.7778	-0.7320 H
19 O19	4.0194	-2.3415	-0.2779 O
20 C20	4.9417	-1.1033	1.8978 C
21 H21	5.3292	-2.1321	1.9700 H
22 H22	5.6329	-0.3114	2.2276 H
23 O23	3.8176	-0.8565	1.4789 O
24 C24	1.5580	-4.0259	-1.2518 C
25 H25	0.5502	-3.6984	-1.5531 H
26 H26	1.6087	-5.0051	-0.7495 H
27 O27	2.5553	-3.3467	-1.4612 O
28 C28	5.3838	0.5023	-0.6779 C
29 H29	5.5313	1.5796	-0.5004 H
30 H30	6.2246	-0.0185	-1.1633 H
31 O31	4.3539	-0.0775	-0.3570 O
32 C32	1.4617	-3.8858	0.8591 C
33 H33	1.0139	-3.6192	1.8298 H
34 H34	0.7543	-4.2336	0.0894 H
35 O35	2.6653	-3.8012	0.6497 O
36 C36	1.3894	-2.1757	2.8763 C
37 H37	0.4618	-2.6422	2.5080 H
38 H38	1.2747	-1.5191	3.7536 H
39 O39	2.4754	-2.3736	2.3460 O
40 C40	1.3609	-2.5957	-2.5883 C
41 H41	1.0133	-3.3198	-1.8343 H
42 H42	0.5727	-2.1436	-3.2112 H
43 O43	2.5444	-2.3123	-2.7250 O
44 C44	1.4734	-0.1137	-3.1275 C
45 H45	0.5385	-0.5080	-2.6982 H
46 H46	1.3503	0.6262	-3.9344 H
47 O47	2.5758	-0.4737	-2.7339 O
48 C48	1.4734	-0.1137	-3.1275 C
49 H49	1.3503	0.6262	-3.9344 H
50 H50	0.5385	-0.5080	-2.6982 H
51 O51	2.5758	-0.4737	-2.7339 O
52 C52	2.8657	-3.7210	2.0006 C
53 H53	2.4728	-4.0634	2.9712 H
54 H54	2.9757	-4.5016	1.2309 H
55 O55	3.1603	-2.5510	1.7912 O
56 C56	1.7917	-1.3944	3.6160 C
57 H57	1.3948	-0.6263	4.2987 H
58 H58	1.5631	-2.4368	3.8897 H
59 O59	2.4435	-1.1087	2.6193 O
60 C60	2.0016	-3.1470	2.8011 C
61 H61	1.8383	-3.8676	1.9838 H
62 H62	1.9512	-3.5646	3.8193 H
63 O63	2.2241	-1.9611	2.5916 O
64 C64	1.1468	-1.9509	-2.6835 C
65 H65	0.9892	-0.8692	-2.8205 H
66 H66	0.2327	-2.5504	-2.5464 H
67 O67	2.2636	-2.4535	-2.6835 O
68 C68	1.3483	-4.1546	0.5110 C
69 H69	1.7394	-4.7584	-0.3235 H
70 H70	0.2509	-4.0748	0.5657 H
71 O71	2.0843	-3.6088	1.3234 O
72 C72	1.2513	-3.1922	-2.1891 C
73 H73	0.1682	-3.2539	-1.9973 H
74 H74	1.5375	-2.7585	-3.1606 H
75 O75	2.0817	-3.5797	-1.3766 O
76 C76	1.1802	-1.4300	2.9028 C
77 H77	1.2422	-2.5214	3.0398 H
78 H78	0.1646	-1.0257	2.7657 H
79 O79	2.1738	-0.7141	2.9028 O
80 C80	-0.6285	-4.0900	1.4026 C
81 H81	-1.3656	-3.2827	1.5397 H
82 H82	0.4144	-3.7623	1.2656 H
83 O83	-0.9471	-5.2724	1.4026 O
84 C84	1.1884	-2.3525	2.7666 C
85 H85	0.0957	-2.3200	2.6296 H
86 H86	1.6200	-3.3569	2.9037 H
87 O87	1.8772	-1.3400	2.7666 O
88 C88	3.0730	-3.5669	-0.6167 C
89 H89	2.7941	-4.6153	-0.4250 H
90 H90	2.7501	-3.1598	-1.5882 H
91 O91	3.6999	-2.8986	0.1957 O
92 C92	1.1876	-3.6400	-1.4635 C
93 H93	1.4428	-2.9000	-2.2386 H
94 H94	0.1113	-3.7699	-1.2670 H
95 O95	2.0430	-4.2758	-0.8604 O
96 C96	-3.1082	-1.8736	1.3661 C
97 H97	-3.8088	-2.7127	1.2290 H
98 H98	-2.0518	-2.1547	1.5031 H
99 O99	-3.4788	-0.7064	1.3661 O
100 C100	-0.0763	-4.6389	-1.4172 C
101 H101	-1.1403	-4.8895	-1.2801 H
102 H102	0.1455	-3.5685	-1.5542 H
103 O103	0.8013	-5.4930	-1.4172 O
104 C104	2.2839	-3.2249	-2.6624 C
105 H105	1.4366	-3.7952	-2.2495 H
106 H106	3.0358	-3.8186	-3.2065 H
107 O107	2.3834	-2.0120	-2.5257 O
108 C108	-4.0352	-1.5864	1.2505 C
109 H109	-5.0976	-1.7818	1.4671 H
110 H110	-3.4084	-2.4804	1.1037 H
111 O111	-3.5814	-0.4513	1.1778 O
112 C112	1.7622	-4.2128	2.2675 C
113 H113	1.0986	-4.9938	2.6719 H
114 H114	1.2550	-3.3575	1.7934 H
115 O115	2.9822	-4.2903	2.3402 O
116 C116	1.1255	-2.3476	2.9320 C
117 H117	1.3474	-1.2772	2.7950 H
118 H118	0.0615	-2.5983	3.0691 H
119 O119	2.0031	-3.2018	2.9320 O
120 C120	0.8286	-3.9356	-1.9884 C
121 H121	-0.1393	-3.5255	-1.6586 H
122 H122	1.6854	-3.2468	-1.9162 H
123 O123	0.9443	-5.0805	-2.4072 O
124 C124	0.5709	-3.5090	-2.3695 C
125 H125	1.6149	-3.2264	-2.1600 H
126 H126	-0.0925	-3.5603	-1.4915 H
127 O127	0.1743	-3.7499	-3.5028 O
128 C128	-3.6940	-1.5914	-1.1642 C
129 H129	-3.0550	-1.7809	-2.0415 H
130 H130	-4.2642	-2.4591	-0.7959 H
131 O131	-3.7656	-0.4898	-0.6339 O
132 C132	0.3544	-4.0675	2.4816 C
133 H133	-0.0367	-3.4638	1.6472 H
134 H134	1.4518	-4.1474	2.5364 H
135 O135	-0.3816	-4.6134	3.2941 O
136 C136	4.7261	-1.0560	-1.3458 C
137 H137	5.1136	-2.0848	-1.2736 H
138 H138	5.4174	-0.2640	-1.0160 H
139 O139	3.6021	-0.8092	-1.7646 O
140 C140	0.9807	-1.2309	3.0007 C
141 H141	-0.0889	-1.4264	3.1782 H
142 H142	1.2136	-0.2697	2.5153 H
143 O143	1.8526	-2.0288	3.3216 O
144 C144	4.6782	1.9789	1.4497 C
145 H145	5.7543	2.1713	1.3126 H
146 H146	4.0497	2.8733	1.5867 H
147 O147	4.2119	0.8465	1.4497 O
148 C148	-3.7834	-1.6712	-1.5449 C
149 H149	-3.9370	-2.3938	-0.7277 H
150 H150	-3.9127	-2.0714	-2.5632 H
151 O151	-3.4888	-0.5011	-1.3355 O
152 C152	-0.4554	-3.4719	-1.8894 C
153 H153	-0.9736	-2.5093	-2.0264 H
154 H154	-1.1094	-4.3478	-1.7523 H
155 O155	0.7659	-3.5621	-1.8894 O
156 C156	1.1699	-3.4671	2.2103 C
157 H157	0.0764	-3.3595	2.2904 H
158 H158	1.7541	-2.5612	2.4381 H
159 O159	1.7007	-4.5231	1.8894 O
160 C160	-0.0963	-2.1147	-2.9795 C
161 H161	-0.8921	-1.5253	-2.4968 H
162 H162	0.9337	-1.8348	-2.7068 H
163 O163	-0.3404	-3.0205	-3.7667 O
164 C164	-3.9346	0.8454	1.6407 C
165 H165	-4.1001	-0.0620	2.2432 H
166 H166	-3.9684	1.7965	2.1956 H
167 O167	-3.7269	0.7998	0.4346 O
168 C168	1.3754	5.8282	0.0000 C
169 H169	0.4066	6.3346	0.1371 H
170 H170	2.2434	6.4927	-0.1371 H
171 O171	1.4804	4.6080	0.0000 O
172 C172	0.2687	-0.7599	3.1164 C
173 H173	-0.7155	-0.8698	2.6337 H
174 H174	1.0187	-1.5195	2.8437 H
175 O175	0.5128	0.1459	3.9036 O
176 C176	0.6184	5.2619	1.9354 C
177 H177	1.1662	6.0328	2.5006 H
178 H178	-0.4794	5.3536	1.9489 H
179 O179	1.1915	4.3632	1.3323 O
180 C180	0.1608	5.4846	-0.6416 C
181 H181	0.3092	6.2199	-1.4485 H
182 H182	-0.8532	5.4489	-0.2123 H
183 O183	1.0629	4.7558	-0.2480 O
184 C184	0.5209	-1.1627	-3.5743 C
185 H185	1.0756	-1.6207	-2.7398 H
186 H186	0.5678	-0.0633	-3.6290 H
187 O187	-0.1061	-1.8310	-4.3867 O
188 C188	0.9399	1.7310	3.3104 C
189 H189	0.1572	2.3691	2.8700 H
190 H190	1.8754	1.6603	2.7329 H
191 O191	0.7806	1.1398	4.3710 O
192 C192	1.2731	2.9679	-2.5404 C
193 H193	0.2889	2.8581	-3.0231 H
194 H194	2.0231	2.2084	-2.8132 H
195 O195	1.5172	3.8737	-1.7532 O
196 C196	0.6004	3.3130	-2.4908 C
197 H197	1.0468	2.4133	-2.9434 H
198 H198	-0.4543	3.5004	-2.7481 H
199 O199	1.2341	4.0552	-1.7511 O
200 C200	0.9416	4.1425	-3.2378 C
201 H201	1.6658	4.2736	-4.0576 H
202 H202	-0.0271	4.6491	-3.3745 H
203 O203	1.1963	3.4779	-2.2412 O
@<TRIPOS>BOND
1 1 2 1
2 1 3 2
3 1 6 1
4 3 4 1
5 3 5 1
6 6 7 1
7 8 9 1
8 8 10 1
9 8 11 2
10 12 13 1
11 12 14 1
12 12 15 2
13 16 17 1
14 16 18 1
15 16 19 2
16 20 21 1
17 20 22 1
18 20 23 2
19 24 25 1
20 24 26 1
21 24 27 2
22 28 29 1
23 28 30 1
24 28 31 2
25 32 33 1
26 32 34 1
27 32 35 2
28 36 37 1
29 36 38 1
30 36 39 2
31 40 41 1
32 40 42 1
33 40 43 2
34 44 45 1
35 44 46 1
36 44 47 2
37 48 49 1
38 48 50 1
39 48 51 2
40 52 53 1
41 52 54 1
42 52 55 2
43 56 57 1
44 56 58 1
45 56 59 2
46 60 61 1
47 60 62 1
48 60 63 2
49 64 65 1
50 64 66 1
51 64 67 2
52 68 69 1
53 68 70 1
54 68 71 2
55 72 73 1
56 72 74 1
57 72 75 2
58 76 77 1
59 76 78 1
60 76 79 2
61 80 81 1
62 80 82 1
63 80 83 2
64 84 85 1
65 84 86 1
66 84 87 2
67 88 89 1
68 88 90 1
69 88 91 2
70 92 93 1
71 92 94 1
72 92 95 2
73 96 97 1
74 96 98 1
75 96 99 2
76 100 101 1
77 100 102 1
78 100 103 2
79 104 105 1
80 104 106 1
81 104 107 2
82 108 109 1
83 108 110 1
84 108 111 2
85 112 113 1
86 112 114 1
87 112 115 2
88 116 117 1
89 116 118 1
90 116 119 2
91 120 121 1
92 120 122 1
93 120 123 2
94 124 125 1
95 124 126 1
96 124 127 2
97 128 129 1
98 128 130 1
99 128 131 2
100 132 133 1
101 132 134 1
102 132 135 2
103 136 137 1
104 136 138 1
105 136 139 2
106 140 141 1
107 140 142 1
108 140 143 2
109 144 145 1
110 144 146 1
111 144 147 2
112 148 149 1
113 148 150 1
114 148 151 2
115 152 153 1
116 152 154 1
117 152 155 2
118 156 157 1
119 156 158 1
120 156 159 2
121 160 161 1
122 160 162 1
123 160 163 2
124 164 165 1
125 164 166 1
126 164 167 2
127 168 169 1
128 168 170 1
129 168 171 2
130 172 173 1
131 172 174 1
132 172 175 2
133 176 177 1
134 176 178 1
135 176 179 2
136 180 181 1
137 180 182 1
138 180 183 2
139 184 185 1
140 184 186 1
141 184 187 2
142 188 189 1
143 188 190 1
144 188 191 2
145 192 193 1
146 192 194 1
147 192 195 2
148 196 197 1
149 196 198 1
150 196 199 2
151 200 201 1
152 200 202 1
153 200 203 2
