@<TRIPOS>MOLECULE
Molecule Name
207 156
SMALL
NO_CHARGES

@<TRIPOS>ATOM
1 C1	0.0000	0.0000	0.0000 C
2 H2	-1.0835	0.0000	0.0000 H
3 C3	0.7457	1.1053	0.0000 C
4 H4	0.2726	2.0824	0.0000 H
5 H5	1.8291	1.0747	-0.0000 H
6 O6	0.5011	-1.2693	0.0000 O
7 H7	1.4727	-1.2210	-0.0000 H
8 C8	1.6155	-4.0425	-0.3806 C
9 H9	1.4092	-4.0905	0.7005 H
10 H10	0.8091	-4.4110	-1.0346 H
11 O11	2.6706	-3.6085	-0.8257 O
12 C12	2.4426	-4.1558	-0.5125 C
13 H13	1.4849	-4.0210	0.0150 H
14 H14	2.9320	-5.1319	-0.3662 H
15 O15	2.9306	-3.2791	-1.2147 O
16 C16	0.8746	-3.6006	-1.5665 C
17 H17	-0.0755	-3.1936	-1.9476 H
18 H18	0.7868	-4.2908	-0.7122 H
19 O19	1.9562	-3.3056	-2.0594 O
20 C20	0.8279	-4.1274	-1.5904 C
21 H21	0.2675	-4.3780	-2.5052 H
22 H22	0.3967	-4.5071	-0.6504 H
23 O23	1.8611	-3.4706	-1.6167 O
24 C24	2.3132	-4.7491	-0.2966 C
25 H25	2.0007	-4.8006	-1.3517 H
26 H26	2.2339	-5.6915	0.2687 H
27 O27	2.7216	-3.7136	0.2140 O
28 C28	0.8617	-3.6286	-1.4806 C
29 H29	0.9370	-2.8565	-2.2629 H
30 H30	-0.1563	-3.9934	-1.2700 H
31 O31	1.8439	-4.0530	-0.8850 O
32 C32	2.3718	-3.9471	-0.7245 C
33 H33	1.7003	-4.0166	-1.5952 H
34 H34	2.1191	-4.6033	0.1236 H
35 O35	3.3348	-3.1909	-0.7011 O
36 C36	1.1560	-3.7347	-1.1868 C
37 H37	0.0868	-3.9022	-0.9809 H
38 H38	1.3891	-3.3209	-2.1809 H
39 O39	2.0274	-3.9914	-0.3654 O
40 C40	1.0131	-4.4795	-0.8536 C
41 H41	1.1827	-5.5242	-0.5476 H
42 H42	0.1071	-4.0057	-0.4432 H
43 O43	1.7804	-3.8846	-1.6000 O
44 C44	-3.3329	-2.0554	-0.6728 C
45 H45	-4.1952	-2.6642	-0.3576 H
46 H46	-2.3455	-2.5251	-0.5381 H
47 O47	-3.4632	-0.9316	-1.1416 O
48 C48	-3.0872	-2.1878	-1.2913 C
49 H49	-2.3695	-1.9631	-2.0964 H
50 H50	-3.4205	-3.2362	-1.2313 H
51 O51	-3.4878	-1.3296	-0.5149 O
52 C52	2.0314	-4.1828	-1.7241 C
53 H53	1.1574	-3.5400	-1.5326 H
54 H54	2.0114	-4.7407	-2.6739 H
55 O55	2.9629	-4.2713	-0.9340 O
56 C56	-3.0003	-2.4372	0.3747 C
57 H57	-2.6951	-2.6452	1.4126 H
58 H58	-2.8079	-3.2462	-0.3480 H
59 O59	-3.5190	-1.3776	0.0462 O
60 C60	1.6972	-4.2870	-0.0873 C
61 H61	0.7662	-4.7627	-0.4348 H
62 H62	1.6607	-3.8565	0.9262 H
63 O63	2.7052	-4.2399	-0.7811 O
64 C64	2.6910	-4.4045	-0.8197 C
65 H65	2.6635	-5.5034	-0.8935 H
66 H66	1.7101	-3.9093	-0.7400 H
67 O67	3.7418	-3.7755	-0.8259 O
68 C68	1.8880	-3.8353	-1.3671 C
69 H69	1.3397	-4.4191	-0.6106 H
70 H70	1.2709	-3.1715	-1.9935 H
71 O71	3.1022	-3.9186	-1.5027 O
72 C72	-3.7064	-0.6976	-1.7363 C
73 H73	-4.5108	-0.9906	-2.4298 H
74 H74	-2.7936	-1.3128	-1.7809 H
75 O75	-3.8194	0.2488	-0.9673 O
76 C76	-4.2020	0.8220	-1.2608 C
77 H77	-3.5135	0.8717	-2.1193 H
78 H78	-5.2387	1.1338	-1.4649 H
79 O79	-3.8392	0.4452	-0.1534 O
80 C80	1.4457	-4.6395	-0.6521 C
81 H81	1.2674	-3.7228	-1.2365 H
82 H82	0.6109	-5.3582	-0.6298 H
83 O83	2.5012	-4.8460	-0.0664 O
84 C84	1.0070	-4.8548	-1.3939 C
85 H85	0.7691	-5.5793	-0.5987 H
86 H86	0.8100	-3.7990	-1.1487 H
87 O87	1.4602	-5.2001	-2.4779 O
88 C88	1.5697	-4.0786	0.1056 C
89 H89	2.0849	-3.9246	-0.8560 H
90 H90	0.6007	-4.5995	0.0470 H
91 O91	2.0427	-3.6963	1.1685 O
92 C92	1.2693	-4.4275	-0.6977 C
93 H93	0.4565	-4.1375	-0.0128 H
94 H94	1.6079	-3.6422	-1.3922 H
95 O95	1.7635	-5.5480	-0.6875 O
96 C96	-4.8455	0.5054	-0.4676 C
97 H97	-5.1269	-0.0654	0.4317 H
98 H98	-5.6850	0.8610	-1.0861 H
99 O99	-3.6777	0.7297	-0.7601 O
100 C100	-3.5572	1.2771	-2.0944 C
101 H101	-4.3227	1.9768	-2.4661 H
102 H102	-2.7688	1.0089	-2.8157 H
103 O103	-3.5811	0.8274	-0.9556 O
104 C104	-3.6734	-2.1843	-0.7034 C
105 H105	-3.6903	-2.9556	0.0832 H
106 H106	-3.6643	-2.5618	-1.7384 H
107 O107	-3.6653	-0.9874	-0.4445 O
108 C108	-3.4395	-2.0663	0.6055 C
109 H109	-3.1043	-2.9414	0.0262 H
110 H110	-3.5257	-2.2214	1.6928 H
111 O111	-3.6989	-0.9929	0.0762 O
112 C112	1.0206	-4.8406	-1.3850 C
113 H113	0.9158	-3.7570	-1.2156 H
114 H114	0.6006	-5.2159	-2.3319 H
115 O115	1.5673	-5.5786	-0.5749 O
116 C116	0.8847	-4.4907	-1.1689 C
117 H117	1.7465	-3.8512	-0.9197 H
118 H118	-0.0709	-4.2027	-0.7023 H
119 O119	0.9824	-5.4571	-1.9147 O
120 C120	1.1694	-3.8913	-1.8382 C
121 H121	0.1798	-4.3132	-1.6007 H
122 H122	1.8669	-3.8096	-0.9893 H
123 O123	1.4739	-3.5369	-2.9702 O
124 C124	2.4206	-4.2935	-0.9422 C
125 H125	2.4326	-5.2888	-1.4144 H
126 H126	2.0179	-3.4779	-1.5637 H
127 O127	2.8278	-4.1063	0.1975 O
128 C128	0.6464	5.1911	-1.6143 C
129 H129	1.0100	4.4766	-2.3700 H
130 H130	0.6671	6.2510	-1.9143 H
131 O131	0.2459	4.8313	-0.5144 O
132 C132	-5.0713	0.5214	0.0000 C
133 H133	-5.7079	0.0682	-0.7766 H
134 H134	-5.6040	1.0932	0.7766 H
135 O135	-3.8529	0.3978	0.0000 O
136 C136	-1.8443	-1.4355	-2.5988 C
137 H137	-1.5845	-2.5040	-2.6660 H
138 H138	-1.1838	-0.7504	-3.1539 H
139 O139	-2.8034	-1.0360	-1.9504 O
140 C140	1.2764	-4.1949	-2.0463 C
141 H141	1.0625	-3.8037	-1.0389 H
142 H142	1.1246	-5.2782	-2.1772 H
143 O143	1.6577	-3.4737	-2.9597 O
144 C144	1.8891	-4.9748	-0.5375 C
145 H145	1.0247	-5.2856	0.0708 H
146 H146	2.5885	-5.7796	-0.8148 H
147 O147	2.0609	-3.8124	-0.8823 O
148 C148	1.2502	-4.7041	-0.3503 C
149 H149	1.8688	-4.1921	-1.1046 H
150 H150	0.6536	-4.0456	0.3010 H
151 O151	1.2273	-5.9238	-0.2431 O
152 C152	0.7440	-4.9142	-1.3005 C
153 H153	1.7737	-5.2767	-1.1523 H
154 H154	0.5144	-3.9374	-0.8455 H
155 O155	-0.0898	-5.5542	-1.9289 O
156 C156	-2.6902	-1.0943	-2.9426 C
157 H157	-2.6952	-2.1958	-2.9206 H
158 H158	-2.3687	-0.6399	-3.8934 H
159 O159	-3.0199	-0.4201	-1.9749 O
160 C160	-4.4656	1.5103	-1.3884 C
161 H161	-4.8193	2.2468	-0.6494 H
162 H162	-5.0524	1.4522	-2.3191 H
163 O163	-3.4857	0.8035	-1.1888 O
164 C164	-2.9571	-0.0500	-3.0220 C
165 H165	-2.0866	-0.0218	-3.6967 H
166 H166	-3.7997	-0.6741	-3.3600 H
167 O167	-2.9860	0.5707	-1.9668 O
168 C168	-4.2785	-0.5370	0.9270 C
169 H169	-4.4635	-0.2754	1.9810 H
170 H170	-4.4921	-1.5824	0.6526 H
171 O171	-3.8631	0.2798	0.1145 O
172 C172	-3.5461	1.8781	-2.0927 C
173 H173	-2.9625	2.7967	-1.9219 H
174 H174	-4.4211	1.9874	-2.7531 H
175 O175	-3.2425	0.8070	-1.5826 O
176 C176	0.4897	3.7671	-2.9658 C
177 H177	0.7879	4.3093	-3.8773 H
178 H178	-0.2047	2.9257	-3.1196 H
179 O179	0.9025	4.0789	-1.8558 O
180 C180	0.1731	5.7187	-1.2125 C
181 H181	-0.3988	5.5081	-2.1303 H
182 H182	0.3845	6.7824	-1.0184 H
183 O183	0.5487	4.8299	-0.4584 O
184 C184	1.8613	4.9135	-1.1845 C
185 H185	2.5164	5.7851	-1.3416 H
186 H186	1.6747	4.2929	-2.0755 H
187 O187	1.3729	4.6518	-0.0923 O
188 C188	-4.6858	-1.4548	-1.0367 C
189 H189	-5.1670	-2.2679	-0.4702 H
190 H190	-5.2760	-1.0437	-1.8712 H
191 O191	-3.5695	-1.0357	-0.7574 O
192 C192	1.4891	4.8357	-2.3063 C
193 H193	0.7624	4.6842	-3.1203 H
194 H194	2.3936	5.4036	-2.5769 H
195 O195	1.3040	4.4019	-1.1761 O
196 C196	0.2774	3.3631	-2.9057 C
197 H197	-0.4297	2.6091	-3.2868 H
198 H198	1.2342	3.4332	-3.4472 H
199 O199	0.0171	4.0758	-1.9444 O
200 C200	0.6882	-4.7125	-1.4182 C
201 H201	-0.4056	-4.6756	-1.2913 H
202 H202	1.0726	-5.5830	-1.9735 H
203 O203	1.4273	-3.8441	-0.9718 O
204 C204	-3.7012	-0.9798	0.0826 C
205 H205	-3.4589	-1.1983	-0.9697 H
206 H206	-3.5242	-1.8043	0.7917 H
207 O207	-4.1380	0.1069	0.4403 O
@<TRIPOS>BOND
1 1 2 1
2 1 3 2
3 1 6 1
4 3 4 1
5 3 5 1
6 6 7 1
7 8 9 1
8 8 10 1
9 8 11 2
10 12 13 1
11 12 14 1
12 12 15 2
13 16 17 1
14 16 18 1
15 16 19 2
16 20 21 1
17 20 22 1
18 20 23 2
19 24 25 1
20 24 26 1
21 24 27 2
22 28 29 1
23 28 30 1
24 28 31 2
25 32 33 1
26 32 34 1
27 32 35 2
28 36 37 1
29 36 38 1
30 36 39 2
31 40 41 1
32 40 42 1
33 40 43 2
34 44 45 1
35 44 46 1
36 44 47 2
37 48 49 1
38 48 50 1
39 48 51 2
40 52 53 1
41 52 54 1
42 52 55 2
43 56 57 1
44 56 58 1
45 56 59 2
46 60 61 1
47 60 62 1
48 60 63 2
49 64 65 1
50 64 66 1
51 64 67 2
52 68 69 1
53 68 70 1
54 68 71 2
55 72 73 1
56 72 74 1
57 72 75 2
58 76 77 1
59 76 78 1
60 76 79 2
61 80 81 1
62 80 82 1
63 80 83 2
64 84 85 1
65 84 86 1
66 84 87 2
67 88 89 1
68 88 90 1
69 88 91 2
70 92 93 1
71 92 94 1
72 92 95 2
73 96 97 1
74 96 98 1
75 96 99 2
76 100 101 1
77 100 102 1
78 100 103 2
79 104 105 1
80 104 106 1
81 104 107 2
82 108 109 1
83 108 110 1
84 108 111 2
85 112 113 1
86 112 114 1
87 112 115 2
88 116 117 1
89 116 118 1
90 116 119 2
91 120 121 1
92 120 122 1
93 120 123 2
94 124 125 1
95 124 126 1
96 124 127 2
97 128 129 1
98 128 130 1
99 128 131 2
100 132 133 1
101 132 134 1
102 132 135 2
103 136 137 1
104 136 138 1
105 136 139 2
106 140 141 1
107 140 142 1
108 140 143 2
109 144 145 1
110 144 146 1
111 144 147 2
112 148 149 1
113 148 150 1
114 148 151 2
115 152 153 1
116 152 154 1
117 152 155 2
118 156 157 1
119 156 158 1
120 156 159 2
121 160 161 1
122 160 162 1
123 160 163 2
124 164 165 1
125 164 166 1
126 164 167 2
127 168 169 1
128 168 170 1
129 168 171 2
130 172 173 1
131 172 174 1
132 172 175 2
133 176 177 1
134 176 178 1
135 176 179 2
136 180 181 1
137 180 182 1
138 180 183 2
139 184 185 1
140 184 186 1
141 184 187 2
142 188 189 1
143 188 190 1
144 188 191 2
145 192 193 1
146 192 194 1
147 192 195 2
148 196 197 1
149 196 198 1
150 196 199 2
151 200 201 1
152 200 202 1
153 200 203 2
154 204 205 1
155 204 206 1
156 204 207 2
