@<TRIPOS>MOLECULE
Molecule Name
245 228
SMALL
NO_CHARGES

@<TRIPOS>ATOM
1 C1	0.0000	0.0000	0.0000 C
2 O2	-1.2307	0.0000	0.0000 O
3 O3	0.7406	1.1694	0.0000 O
4 H4	0.1452	1.9503	-0.0180 H
5 N5	0.2909	-2.4542	0.3689 N
6 C6	-1.0495	-3.7549	1.9028 C
7 H7	-1.3992	-4.4403	1.1412 H
8 H8	-1.3921	-3.9368	2.9134 H
9 C9	-0.2461	-2.6991	1.6382 C
10 C10	0.1637	-1.7363	2.7320 C
11 H11	-0.2344	-0.7287	2.5613 H
12 H12	-0.2230	-2.0813	3.6932 H
13 H13	1.2551	-1.6555	2.8153 H
14 C14	1.2878	-2.9970	-1.6915 C
15 C15	0.1574	-3.4117	-0.7359 C
16 C16	0.9264	-1.2058	-0.0459 C
17 C17	1.3529	-1.4636	-1.5322 C
18 H18	2.2306	-3.4555	-1.3719 H
19 H19	1.0986	-3.2967	-2.7267 H
20 H20	0.2807	-4.4311	-0.3553 H
21 H21	-0.8312	-3.3484	-1.2182 H
22 H22	1.8025	-0.9674	0.5690 H
23 H23	0.6376	-0.9866	-2.2121 H
24 H24	2.3396	-1.0435	-1.7397 H
25 O25	-1.6971	3.0881	0.9381 O
26 H26	-2.8033	1.6724	-0.0117 H
27 C27	-2.7259	2.4153	0.8073 C
28 C28	-3.9485	2.5105	1.6979 C
29 C29	-3.7483	3.4978	2.8551 C
30 H30	-2.9558	3.1500	3.5271 H
31 H31	-4.6710	3.6024	3.4358 H
32 H32	-3.4534	4.4843	2.4856 H
33 C33	-4.3514	1.0957	2.1795 C
34 H34	-4.7609	2.8760	1.0441 H
35 H35	-4.4767	0.4027	1.3388 H
36 H36	-5.2986	1.1373	2.7269 H
37 H37	-3.5892	0.6833	2.8510 H
38 O38	-1.3314	3.7026	-0.1605 O
39 H39	-1.2638	3.0847	-2.0954 H
40 C40	-1.7672	3.6929	-1.3173 C
41 C41	-2.9781	4.4667	-1.7987 C
42 C42	-3.6732	5.2243	-0.6601 C
43 H43	-4.0807	4.5243	0.0777 H
44 H44	-4.4967	5.8327	-1.0491 H
45 H45	-2.9713	5.8794	-0.1358 H
46 C46	-3.9344	3.5147	-2.5572 C
47 H47	-2.5893	5.1930	-2.5351 H
48 H48	-3.4156	2.9736	-3.3578 H
49 H49	-4.7540	4.0824	-3.0096 H
50 H50	-4.3698	2.7769	-1.8732 H
51 O51	-0.8151	3.8595	-0.8573 O
52 H52	-1.2213	4.7698	0.9137 H
53 C53	-1.3767	4.7303	-0.1832 C
54 C54	-2.2995	5.7987	-0.7343 C
55 C55	-2.4110	5.7373	-2.2631 C
56 H56	-1.4438	5.9542	-2.7302 H
57 H57	-3.1404	6.4696	-2.6256 H
58 H58	-2.7187	4.7419	-2.5967 H
59 C59	-1.8500	7.1881	-0.2209 C
60 H60	-3.2891	5.5910	-0.2886 H
61 H61	-1.7640	7.2070	0.8723 H
62 H62	-2.5748	7.9537	-0.5160 H
63 H63	-0.8765	7.4613	-0.6446 H
64 O64	-0.9006	2.6868	-1.9261 O
65 H65	-2.9163	2.8389	-1.7158 H
66 C66	-2.0557	2.4756	-2.3127 C
67 C67	-2.4283	1.7347	-3.5811 C
68 C68	-1.1959	1.3274	-4.3989 C
69 H69	-0.6590	2.2133	-4.7560 H
70 H70	-1.4909	0.7299	-5.2681 H
71 H71	-0.4961	0.7435	-3.7938 H
72 C72	-3.4378	2.5779	-4.3973 C
73 H73	-2.9592	0.8255	-3.2455 H
74 H74	-4.3043	2.8695	-3.7915 H
75 H75	-3.8033	2.0050	-5.2556 H
76 H76	-2.9634	3.4908	-4.7759 H
77 O77	-1.0674	3.1148	1.5465 O
78 H78	-2.8147	4.1485	1.6389 H
79 C79	-2.0122	3.6040	2.1758 C
80 C80	-2.1898	3.5290	3.6790 C
81 C81	-1.0901	2.6982	4.3528 C
82 H82	-1.1402	1.6534	4.0264 H
83 H83	-1.2008	2.7243	5.4421 H
84 H84	-0.0962	3.0741	4.0927 H
85 C85	-3.6137	3.0191	4.0087 C
86 H86	-2.1268	4.5732	4.0351 H
87 H87	-4.3839	3.6178	3.5075 H
88 H88	-3.7944	3.0710	5.0873 H
89 H89	-3.7342	1.9758	3.6943 H
90 O90	0.3905	3.9270	1.1297 O
91 H91	0.8893	5.2384	-0.3405 H
92 C92	0.8777	4.9944	0.7407 C
93 C93	1.4891	6.0515	1.6383 C
94 C94	1.3722	5.6895	3.1245 C
95 H95	0.3212	5.6545	3.4322 H
96 H96	1.8876	6.4319	3.7432 H
97 H97	1.8043	4.7049	3.3261 H
98 C98	0.8738	7.4328	1.3071 C
99 H99	2.5569	6.0943	1.3570 H
100 H100	0.9560	7.6665	0.2388 H
101 H101	1.3891	8.2208	1.8659 H
102 H102	-0.1871	7.4603	1.5819 H
103 O103	-0.4577	3.3592	1.6919 O
104 H104	0.8639	3.6009	3.2167 H
105 C105	-0.1800	3.4117	2.8953 C
106 C106	-1.1723	3.2348	4.0271 C
107 C107	-2.6081	3.0543	3.5174 C
108 H108	-2.9513	3.9578	3.0012 H
109 H109	-3.2899	2.8538	4.3507 H
110 H110	-2.6728	2.2267	2.8050 H
111 C111	-1.0338	4.4083	5.0270 C
112 H112	-0.8556	2.3174	4.5552 H
113 H113	0.0013	4.5285	5.3688 H
114 H114	-1.6617	4.2326	5.9065 H
115 H115	-1.3523	5.3503	4.5655 H
116 O116	0.2210	4.1701	0.5641 O
117 H117	-0.6471	3.4416	2.2510 H
118 C118	0.2135	3.9594	1.7821 C
119 C119	1.3165	4.3579	2.7421 C
120 C120	2.5098	4.9987	2.0217 C
121 H121	2.9889	4.2772	1.3505 H
122 H122	3.2560	5.3441	2.7452 H
123 H123	2.1922	5.8502	1.4127 H
124 C124	1.7210	3.1371	3.6036 C
125 H125	0.8606	5.1001	3.4221 H
126 H126	0.8528	2.6862	4.0992 H
127 H127	2.4328	3.4394	4.3785 H
128 H128	2.1987	2.3679	2.9855 H
129 O129	-7.3565	-1.9059	1.9037 O
130 H130	-6.6940	-2.5148	0.0815 H
131 C131	-6.4577	-2.0786	1.0728 C
132 C132	-4.9966	-1.7369	1.2859 C
133 C133	-4.7491	-1.0672	2.6438 C
134 H134	-5.2593	-0.0989	2.6958 H
135 H135	-3.6781	-0.9010	2.8014 H
136 H136	-5.1323	-1.6826	3.4630 H
137 C137	-4.4830	-0.8895	0.0966 C
138 H138	-4.4609	-2.7028	1.2534 H
139 H139	-4.6810	-1.3793	-0.8644 H
140 H140	-3.4024	-0.7349	0.1805 H
141 H141	-4.9666	0.0943	0.0844 H
142 O142	-5.9538	2.0803	-3.1358 O
143 H143	-5.9217	2.3727	-1.1250 H
144 C144	-5.4441	1.9264	-2.0202 C
145 C145	-4.1715	1.1514	-1.7430 C
146 C146	-3.6040	0.4954	-3.0085 C
147 H147	-4.2966	-0.2600	-3.3961 H
148 H148	-2.6474	0.0074	-2.7931 H
149 H149	-3.4497	1.2340	-3.8006 H
150 C150	-4.4203	0.1362	-0.6012 C
151 H151	-3.4494	1.8973	-1.3646 H
152 H152	-4.8377	0.6227	0.2887 H
153 H153	-3.4812	-0.3470	-0.3127 H
154 H154	-5.1191	-0.6449	-0.9226 H
155 O155	-4.1226	-5.0638	0.8397 O
156 H156	-3.3636	-3.3489	1.6229 H
157 C157	-4.2415	-3.8942	1.2221 C
158 C158	-5.5291	-3.0954	1.1954 C
159 C159	-6.6850	-3.8784	0.5595 C
160 H160	-6.4775	-4.0842	-0.4966 H
161 H161	-7.6174	-3.3072	0.6222 H
162 H162	-6.8303	-4.8416	1.0574 H
163 C163	-5.2794	-1.7309	0.5084 C
164 H164	-5.7688	-2.8884	2.2541 H
165 H165	-4.4417	-1.1934	0.9691 H
166 H166	-6.1699	-1.0989	0.5864 H
167 H167	-5.0530	-1.8684	-0.5554 H
168 O168	-1.2056	-2.7195	-3.3974 O
169 H169	-3.1927	-3.0483	-3.1260 H
170 C170	-2.3689	-2.7682	-3.8128 C
171 C171	-2.7997	-2.4688	-5.2346 C
172 C172	-1.6271	-2.0134	-6.1128 C
173 H173	-1.2206	-1.0621	-5.7519 H
174 H174	-1.9528	-1.8775	-7.1497 H
175 H175	-0.8132	-2.7442	-6.0944 H
176 C176	-3.9679	-1.4533	-5.2201 C
177 H177	-3.2002	-3.4209	-5.6273 H
178 H178	-4.7895	-1.7911	-4.5770 H
179 H179	-4.3645	-1.3177	-6.2315 H
180 H180	-3.6281	-0.4770	-4.8551 H
181 O181	0.2551	-6.6684	0.1670 O
182 H182	-1.2491	-8.0327	0.2462 H
183 C183	-0.1654	-7.8182	0.3381 C
184 C184	0.6947	-9.0191	0.6768 C
185 C185	2.1885	-8.6717	0.7129 C
186 H186	2.5382	-8.3653	-0.2792 H
187 H187	2.7775	-9.5378	1.0332 H
188 H188	2.3843	-7.8422	1.3987 H
189 C189	0.3721	-10.1795	-0.2957 C
190 H190	0.3707	-9.3382	1.6839 H
191 H191	-0.7014	-10.4032	-0.3164 H
192 H192	0.9006	-11.0881	0.0102 H
193 H193	0.6884	-9.9299	-1.3152 H
194 O194	-3.6844	-3.7027	-1.0645 O
195 H195	-2.6145	-2.9099	-2.5997 H
196 C196	-3.4152	-2.7818	-1.8439 C
197 C197	-4.1043	-1.4322	-1.8693 C
198 C198	-5.2512	-1.3468	-0.8539 C
199 H199	-6.0463	-2.0564	-1.1084 H
200 H200	-5.6800	-0.3390	-0.8415 H
201 H201	-4.9048	-1.5924	0.1543 H
202 C202	-4.5564	-1.1072	-3.3136 C
203 H203	-3.3236	-0.6983	-1.5991 H
204 H204	-3.7255	-1.1865	-4.0250 H
205 H205	-4.9502	-0.0871	-3.3667 H
206 H206	-5.3480	-1.7938	-3.6356 H
207 O207	-0.1473	-6.5348	0.4668 O
208 H208	-1.6470	-7.4223	1.5124 H
209 C209	-0.5614	-7.3475	1.3012 C
210 C210	0.3094	-8.2958	2.1007 C
211 C211	1.7888	-8.1972	1.7067 C
212 H212	1.9341	-8.5142	0.6680 H
213 H213	2.4021	-8.8364	2.3508 H
214 H214	2.1511	-7.1681	1.7877 H
215 C215	-0.2478	-9.7353	1.9842 C
216 H216	0.1920	-7.9850	3.1546 H
217 H217	-1.3089	-9.7816	2.2575 H
218 H218	0.3020	-10.4092	2.6492 H
219 H219	-0.1426	-10.1096	0.9592 H
220 O220	-0.7477	-2.6320	5.8592 O
221 H221	-1.2215	-0.7160	6.3439 H
222 C222	-0.8138	-1.6959	6.6639 C
223 C223	-0.3717	-1.7590	8.1121 C
224 C224	0.1088	-3.1600	8.5119 C
225 H225	-0.7133	-3.8820	8.4528 H
226 H226	0.4917	-3.1574	9.5381 H
227 H227	0.9005	-3.5113	7.8437 H
228 C228	-1.5053	-1.2307	9.0243 C
229 H229	0.4705	-1.0483	8.1938 H
230 H230	-1.8430	-0.2345	8.7140 H
231 H231	-1.1570	-1.1618	10.0600 H
232 H232	-2.3683	-1.9063	9.0008 H
233 O233	-4.6924	-4.1187	-1.1423 O
234 H234	-3.5863	-4.6698	0.4711 H
235 C235	-4.5149	-4.2097	0.0777 C
236 C236	-5.4870	-3.7318	1.1377 C
237 C237	-6.7125	-3.0367	0.5305 C
238 H238	-6.4173	-2.1203	0.0074 H
239 H239	-7.4310	-2.7704	1.3130 H
240 H240	-7.2116	-3.6822	-0.1982 H
241 C241	-4.7412	-2.8446	2.1638 C
242 H242	-5.8125	-4.6434	1.6706 H
243 H243	-3.8620	-3.3545	2.5758 H
244 H244	-5.4045	-2.5891	2.9964 H
245 H245	-4.4067	-1.9105	1.6975 H
@<TRIPOS>BOND
1 1 2 2
2 1 3 1
3 1 16 1
4 3 4 1
5 5 9 1
6 5 15 1
7 5 16 1
8 6 7 1
9 6 8 1
10 6 9 2
11 9 10 1
12 10 11 1
13 10 12 1
14 10 13 1
15 14 15 1
16 14 17 1
17 14 18 1
18 14 19 1
19 15 20 1
20 15 21 1
21 16 17 1
22 16 22 1
23 17 23 1
24 17 24 1
25 25 27 2
26 26 27 1
27 27 28 1
28 28 29 1
29 28 33 1
30 28 34 1
31 29 30 1
32 29 31 1
33 29 32 1
34 33 35 1
35 33 36 1
36 33 37 1
37 38 40 2
38 39 40 1
39 40 41 1
40 41 42 1
41 41 46 1
42 41 47 1
43 42 43 1
44 42 44 1
45 42 45 1
46 46 48 1
47 46 49 1
48 46 50 1
49 51 53 2
50 52 53 1
51 53 54 1
52 54 55 1
53 54 59 1
54 54 60 1
55 55 56 1
56 55 57 1
57 55 58 1
58 59 61 1
59 59 62 1
60 59 63 1
61 64 66 2
62 65 66 1
63 66 67 1
64 67 68 1
65 67 72 1
66 67 73 1
67 68 69 1
68 68 70 1
69 68 71 1
70 72 74 1
71 72 75 1
72 72 76 1
73 77 79 2
74 78 79 1
75 79 80 1
76 80 81 1
77 80 85 1
78 80 86 1
79 81 82 1
80 81 83 1
81 81 84 1
82 85 87 1
83 85 88 1
84 85 89 1
85 90 92 2
86 91 92 1
87 92 93 1
88 93 94 1
89 93 98 1
90 93 99 1
91 94 95 1
92 94 96 1
93 94 97 1
94 98 100 1
95 98 101 1
96 98 102 1
97 103 105 2
98 104 105 1
99 105 106 1
100 106 107 1
101 106 111 1
102 106 112 1
103 107 108 1
104 107 109 1
105 107 110 1
106 111 113 1
107 111 114 1
108 111 115 1
109 116 118 2
110 117 118 1
111 118 119 1
112 119 120 1
113 119 124 1
114 119 125 1
115 120 121 1
116 120 122 1
117 120 123 1
118 124 126 1
119 124 127 1
120 124 128 1
121 129 131 2
122 130 131 1
123 131 132 1
124 132 133 1
125 132 137 1
126 132 138 1
127 133 134 1
128 133 135 1
129 133 136 1
130 137 139 1
131 137 140 1
132 137 141 1
133 142 144 2
134 143 144 1
135 144 145 1
136 145 146 1
137 145 150 1
138 145 151 1
139 146 147 1
140 146 148 1
141 146 149 1
142 150 152 1
143 150 153 1
144 150 154 1
145 155 157 2
146 156 157 1
147 157 158 1
148 158 159 1
149 158 163 1
150 158 164 1
151 159 160 1
152 159 161 1
153 159 162 1
154 163 165 1
155 163 166 1
156 163 167 1
157 168 170 2
158 169 170 1
159 170 171 1
160 171 172 1
161 171 176 1
162 171 177 1
163 172 173 1
164 172 174 1
165 172 175 1
166 176 178 1
167 176 179 1
168 176 180 1
169 181 183 2
170 182 183 1
171 183 184 1
172 184 185 1
173 184 189 1
174 184 190 1
175 185 186 1
176 185 187 1
177 185 188 1
178 189 191 1
179 189 192 1
180 189 193 1
181 194 196 2
182 195 196 1
183 196 197 1
184 197 198 1
185 197 202 1
186 197 203 1
187 198 199 1
188 198 200 1
189 198 201 1
190 202 204 1
191 202 205 1
192 202 206 1
193 207 209 2
194 208 209 1
195 209 210 1
196 210 211 1
197 210 215 1
198 210 216 1
199 211 212 1
200 211 213 1
201 211 214 1
202 215 217 1
203 215 218 1
204 215 219 1
205 220 222 2
206 221 222 1
207 222 223 1
208 223 224 1
209 223 228 1
210 223 229 1
211 224 225 1
212 224 226 1
213 224 227 1
214 228 230 1
215 228 231 1
216 228 232 1
217 233 235 2
218 234 235 1
219 235 236 1
220 236 237 1
221 236 241 1
222 236 242 1
223 237 238 1
224 237 239 1
225 237 240 1
226 241 243 1
227 241 244 1
228 241 245 1
