@<TRIPOS>MOLECULE
Molecule Name
50 48
SMALL
NO_CHARGES

@<TRIPOS>ATOM
1 C1	0.0000	0.0000	0.0000 C
2 O2	-1.2224	0.0000	0.0000 O
3 O3	0.6889	1.2091	0.0000 O
4 H4	1.6619	1.0986	0.0171 H
5 N5	0.2228	-2.4953	0.2052 N
6 C6	-1.2833	-3.8880	1.4812 C
7 H7	-1.5604	-4.5006	0.6328 H
8 H8	-1.7339	-4.1436	2.4315 H
9 C9	-0.4480	-2.8287	1.3905 C
10 C10	-0.1454	-1.9642	2.5953 C
11 H11	-0.5315	-0.9457	2.4721 H
12 H12	-0.6190	-2.3887	3.4829 H
13 H13	0.9334	-1.8988	2.7894 H
14 C14	1.4256	-2.9048	-1.7756 C
15 C15	0.1962	-3.3662	-0.9773 C
16 C16	0.9088	-1.2350	-0.0444 C
17 C17	1.4871	-1.3889	-1.4950 C
18 H18	2.3246	-3.4016	-1.3936 H
19 H19	1.3444	-3.1226	-2.8446 H
20 H20	0.2673	-4.4128	-0.6630 H
21 H21	-0.7346	-3.2485	-1.5541 H
22 H22	1.7231	-1.0765	0.6818 H
23 H23	0.8497	-0.8507	-2.2057 H
24 H24	2.4984	-0.9793	-1.5771 H
25 O25	3.3983	1.2129	1.5191 O
26 H26	2.2650	1.5322	3.1755 H
27 C27	3.0168	1.9195	2.4589 C
28 C28	3.4983	3.3286	2.7411 C
29 C29	4.5915	3.7755	1.7620 C
30 H30	5.4899	3.1590	1.8782 H
31 H31	4.8654	4.8206	1.9418 H
32 H32	4.2580	3.6744	0.7251 H
33 C33	3.9365	3.4407	4.2215 C
34 H34	2.6101	3.9737	2.6142 H
35 H35	3.1464	3.1045	4.9038 H
36 H36	4.1758	4.4802	4.4680 H
37 H37	4.8299	2.8334	4.4082 H
38 O38	3.3775	2.5933	-0.2906 O
39 H39	2.7016	3.9551	1.0581 H
40 C40	3.5445	3.5682	0.4509 C
41 C41	4.8487	4.3216	0.6195 C
42 C42	5.9918	3.6907	-0.1860 C
43 H43	6.2160	2.6842	0.1844 H
44 H44	6.9000	4.2975	-0.1055 H
45 H45	5.7254	3.5977	-1.2430 H
46 C46	5.1794	4.4563	2.1257 C
47 H47	4.6521	5.3393	0.2365 H
48 H48	4.3453	4.8970	2.6851 H
49 H49	6.0557	5.0975	2.2652 H
50 H50	5.4032	3.4761	2.5625 H
@<TRIPOS>BOND
1 1 2 2
2 1 3 1
3 1 16 1
4 3 4 1
5 5 9 1
6 5 15 1
7 5 16 1
8 6 7 1
9 6 8 1
10 6 9 2
11 9 10 1
12 10 11 1
13 10 12 1
14 10 13 1
15 14 15 1
16 14 17 1
17 14 18 1
18 14 19 1
19 15 20 1
20 15 21 1
21 16 17 1
22 16 22 1
23 17 23 1
24 17 24 1
25 25 27 2
26 26 27 1
27 27 28 1
28 28 29 1
29 28 33 1
30 28 34 1
31 29 30 1
32 29 31 1
33 29 32 1
34 33 35 1
35 33 36 1
36 33 37 1
37 38 40 2
38 39 40 1
39 40 41 1
40 41 42 1
41 41 46 1
42 41 47 1
43 42 43 1
44 42 44 1
45 42 45 1
46 46 48 1
47 46 49 1
48 46 50 1
