@<TRIPOS>MOLECULE
Molecule Name
50 48
SMALL
NO_CHARGES

@<TRIPOS>ATOM
1 C1	0.0000	0.0000	0.0000 C
2 O2	-1.2229	0.0000	0.0000 O
3 O3	0.6880	1.2099	0.0000 O
4 H4	1.6609	1.1003	0.0231 H
5 N5	0.1873	-2.4895	0.1946 N
6 C6	-0.9302	-4.1097	1.5902 C
7 H7	-1.1974	-4.7528	0.7616 H
8 H8	-1.2439	-4.4316	2.5747 H
9 C9	-0.2489	-2.9503	1.4418 C
10 C10	0.0950	-2.0857	2.6347 C
11 H11	-0.3485	-1.0862	2.5496 H
12 H12	-0.2902	-2.5436	3.5478 H
13 H13	1.1798	-1.9650	2.7570 H
14 C14	0.3643	-2.2763	-2.1706 C
15 C15	-0.1536	-3.2000	-1.0503 C
16 C16	0.9015	-1.2475	-0.0452 C
17 C17	1.4670	-1.4428	-1.4831 C
18 H18	0.7407	-2.8345	-3.0322 H
19 H19	-0.4397	-1.6190	-2.5189 H
20 H20	0.3321	-4.1873	-1.0676 H
21 H21	-1.2367	-3.3618	-1.1173 H
22 H22	1.7145	-1.1048	0.6800 H
23 H23	1.6691	-0.4963	-1.9942 H
24 H24	2.4029	-2.0090	-1.4224 H
25 O25	3.2174	2.7699	-0.2451 O
26 H26	1.5143	3.8397	0.0465 H
27 C27	2.5294	3.7858	-0.3957 C
28 C28	2.9568	5.0223	-1.1607 C
29 C29	4.3965	4.9149	-1.6799 C
30 H30	5.1050	4.8597	-0.8459 H
31 H31	4.6513	5.7873	-2.2911 H
32 H32	4.5320	4.0127	-2.2837 H
33 C33	2.7266	6.2789	-0.2867 C
34 H34	2.2645	5.0909	-2.0193 H
35 H35	1.6959	6.3300	0.0847 H
36 H36	2.9213	7.1858	-0.8684 H
37 H37	3.4011	6.2788	0.5775 H
38 O38	3.4125	-1.4063	2.1983 O
39 H39	5.1114	-2.5114	2.0474 H
40 C40	4.5432	-1.7247	2.5833 C
41 C41	5.2626	-1.1172	3.7708 C
42 C42	4.4572	0.0158	4.4199 C
43 H43	4.3384	0.8535	3.7237 H
44 H44	4.9653	0.3837	5.3178 H
45 H45	3.4547	-0.3219	4.6984 H
46 C46	6.6842	-0.6757	3.3463 C
47 H47	5.3804	-1.9420	4.4967 H
48 H48	7.2380	-1.4957	2.8732 H
49 H49	7.2542	-0.3431	4.2198 H
50 H50	6.6351	0.1576	2.6357 H
@<TRIPOS>BOND
1 1 2 2
2 1 3 1
3 1 16 1
4 3 4 1
5 5 9 1
6 5 15 1
7 5 16 1
8 6 7 1
9 6 8 1
10 6 9 2
11 9 10 1
12 10 11 1
13 10 12 1
14 10 13 1
15 14 15 1
16 14 17 1
17 14 18 1
18 14 19 1
19 15 20 1
20 15 21 1
21 16 17 1
22 16 22 1
23 17 23 1
24 17 24 1
25 25 27 2
26 26 27 1
27 27 28 1
28 28 29 1
29 28 33 1
30 28 34 1
31 29 30 1
32 29 31 1
33 29 32 1
34 33 35 1
35 33 36 1
36 33 37 1
37 38 40 2
38 39 40 1
39 40 41 1
40 41 42 1
41 41 46 1
42 41 47 1
43 42 43 1
44 42 44 1
45 42 45 1
46 46 48 1
47 46 49 1
48 46 50 1
