@<TRIPOS>MOLECULE
Molecule Name
505 468
SMALL
NO_CHARGES

@<TRIPOS>ATOM
1 C1	0.0000	0.0000	0.0000 C
2 O2	-1.2312	0.0000	0.0000 O
3 O3	0.7396	1.1696	0.0000 O
4 H4	0.1448	1.9512	-0.0088 H
5 N5	0.2533	-2.4539	0.3298 N
6 C6	-0.7252	-3.9964	1.9074 C
7 H7	-1.0814	-4.6743	1.1424 H
8 H8	-0.9318	-4.2711	2.9337 H
9 C9	-0.0565	-2.8520	1.6330 C
10 C10	0.4177	-1.9387	2.7424 C
11 H11	-0.0141	-0.9338	2.6552 H
12 H12	0.1200	-2.3449	3.7112 H
13 H13	1.5104	-1.8317	2.7458 H
14 C14	0.2371	-2.3792	-2.0519 C
15 C15	-0.1851	-3.2349	-0.8393 C
16 C16	0.9229	-1.2153	-0.0405 C
17 C17	1.3739	-1.4898	-1.5036 C
18 H18	0.5576	-2.9896	-2.9010 H
19 H19	-0.6013	-1.7564	-2.3826 H
20 H20	0.3020	-4.2217	-0.8369 H
21 H21	-1.2696	-3.4011	-0.8103 H
22 H22	1.7829	-0.9970	0.5987 H
23 H23	1.5272	-0.5703	-2.0745 H
24 H24	2.3212	-2.0394	-1.4772 H
25 O25	-1.4336	3.1340	1.1685 O
26 H26	-2.7389	1.7620	0.4308 H
27 C27	-2.4973	2.5059	1.2164 C
28 C28	-3.5524	2.6598	2.2933 C
29 C29	-3.1242	3.6445	3.3891 C
30 H30	-2.2477	3.2666	3.9272 H
31 H31	-3.9341	3.7928	4.1113 H
32 H32	-2.8526	4.6149	2.9634 H
33 C33	-3.9300	1.2668	2.8529 C
34 H34	-4.4448	3.0563	1.7762 H
35 H35	-4.2203	0.5748	2.0531 H
36 H36	-4.7722	1.3530	3.5471 H
37 H37	-3.0862	0.8257	3.3963 H
38 O38	-1.8883	2.9762	0.3098 O
39 H39	-2.5832	2.1290	-1.4018 H
40 C40	-2.8023	2.6926	-0.4727 C
41 C41	-4.2605	3.0562	-0.2778 C
42 C42	-4.5083	3.7648	1.0602 C
43 H43	-4.2865	3.0954	1.8989 H
44 H44	-5.5536	4.0820	1.1400 H
45 H45	-3.8664	4.6442	1.1659 H
46 C46	-5.1390	1.7948	-0.4602 C
47 H47	-4.5048	3.7462	-1.1057 H
48 H48	-4.9374	1.2963	-1.4161 H
49 H49	-6.1996	2.0653	-0.4375 H
50 H50	-4.9551	1.0747	0.3456 H
51 O51	-1.2866	3.3293	1.1430 O
52 H52	-3.0863	3.2060	0.2071 H
53 C53	-2.5100	3.5025	1.1064 C
54 C54	-3.3380	4.1084	2.2218 C
55 C55	-2.4955	4.4247	3.4643 C
56 H56	-2.0918	3.5048	3.9019 H
57 H57	-3.1030	4.9293	4.2231 H
58 H58	-1.6461	5.0663	3.2122 H
59 C59	-4.5430	3.1878	2.5327 C
60 H60	-3.7445	5.0492	1.8086 H
61 H61	-5.1241	2.9636	1.6300 H
62 H62	-5.2115	3.6693	3.2537 H
63 H63	-4.2044	2.2390	2.9650 H
64 O64	-1.1964	3.4585	1.0925 O
65 H65	-1.2114	4.5251	2.8223 H
66 C66	-1.6713	3.7308	2.2009 C
67 C67	-2.8765	3.0541	2.8225 C
68 C68	-3.5118	2.0216	1.8823 C
69 H69	-3.9128	2.5094	0.9869 H
70 H70	-4.3313	1.4965	2.3846 H
71 H71	-2.7750	1.2844	1.5502 H
72 C72	-3.8835	4.1269	3.3034 C
73 H73	-2.4935	2.5398	3.7224 H
74 H74	-3.4070	4.8620	3.9633 H
75 H75	-4.7023	3.6566	3.8575 H
76 H76	-4.3152	4.6633	2.4503 H
77 O77	-1.1598	3.7848	0.4451 O
78 H78	-1.9437	4.2916	-1.3601 H
79 C79	-1.7509	4.5701	-0.3046 C
80 C80	-2.2616	5.9396	0.0958 C
81 C81	-2.0330	6.2320	1.5844 C
82 H82	-2.6106	5.5400	2.2073 H
83 H83	-2.3421	7.2542	1.8278 H
84 H84	-0.9794	6.1114	1.8531 H
85 C85	-3.7449	6.0833	-0.3228 C
86 H86	-1.6808	6.6587	-0.5097 H
87 H87	-3.8887	5.8576	-1.3864 H
88 H88	-4.0913	7.1065	-0.1449 H
89 H89	-4.3792	5.4043	0.2589 H
90 O90	-0.8357	3.8736	-0.7936 O
91 H91	-0.9079	4.8117	1.0078 H
92 C92	-1.2423	4.7722	-0.0483 C
93 C93	-2.1973	5.8764	-0.4553 C
94 C94	-2.5601	5.8105	-1.9445 C
95 H95	-1.6742	5.9822	-2.5660 H
96 H96	-3.3076	6.5717	-2.1926 H
97 H97	-2.9598	4.8275	-2.2102 H
98 C98	-1.6118	7.2480	-0.0407 C
99 H99	-3.1084	5.7148	0.1487 H
100 H100	-1.3472	7.2699	1.0234 H
101 H101	-2.3424	8.0426	-0.2234 H
102 H102	-0.7102	7.4760	-0.6212 H
103 O103	-1.6740	3.2277	-0.5918 O
104 H104	-1.3455	2.3704	-2.4049 H
105 C105	-1.9179	3.0994	-1.7969 C
106 C106	-2.9712	3.8769	-2.5603 C
107 C107	-3.7784	4.8102	-1.6486 C
108 H108	-4.3528	4.2327	-0.9157 H
109 H109	-4.4784	5.4126	-2.2374 H
110 H110	-3.1204	5.4831	-1.0909 H
111 C111	-3.8652	2.8956	-3.3566 C
112 H112	-2.4134	4.4817	-3.2979 H
113 H113	-3.2687	2.2294	-3.9915 H
114 H114	-4.5543	3.4497	-4.0021 H
115 H115	-4.4613	2.2758	-2.6767 H
116 O116	-0.8631	4.0166	-0.0451 O
117 H117	-0.9869	4.7964	1.8275 H
118 C118	-1.5083	4.4812	0.9015 C
119 C119	-3.0118	4.6710	0.9215 C
120 C120	-3.6630	4.2895	-0.4141 C
121 H121	-3.3213	4.9550	-1.2147 H
122 H122	-4.7535	4.3645	-0.3459 H
123 H123	-3.3996	3.2680	-0.7040 H
124 C124	-3.3465	6.1172	1.3606 C
125 H125	-3.3829	3.9957	1.7135 H
126 H126	-2.8614	6.3742	2.3100 H
127 H127	-4.4273	6.2327	1.4915 H
128 H128	-3.0175	6.8381	0.6031 H
129 O129	-0.4007	3.4549	1.6424 O
130 H130	-2.4024	3.3447	1.9762 H
131 C131	-1.3856	3.5039	2.3879 C
132 C132	-1.3375	3.7726	3.8787 C
133 C133	0.0997	3.9065	4.3984 C
134 H134	0.6429	2.9622	4.2804 H
135 H135	0.1016	4.1745	5.4603 H
136 H136	0.6505	4.6714	3.8432 H
137 C137	-2.1477	2.6872	4.6282 C
138 H138	-1.8671	4.7318	4.0219 H
139 H139	-3.1670	2.5985	4.2333 H
140 H140	-2.2181	2.9344	5.6924 H
141 H141	-1.6606	1.7091	4.5385 H
142 O142	-0.5351	3.7108	1.3019 O
143 H143	0.5394	4.0626	2.9907 H
144 C144	-0.4509	3.8965	2.5212 C
145 C145	-1.6228	3.9207	3.4819 C
146 C146	-2.9678	3.7628	2.7610 C
147 H147	-3.1517	4.6134	2.0953 H
148 H148	-3.7882	3.7081	3.4845 H
149 H149	-2.9822	2.8580	2.1462 H
150 C150	-1.5548	5.1996	4.3514 C
151 H151	-1.4680	3.0592	4.1564 H
152 H152	-0.5818	5.3003	4.8472 H
153 H153	-2.3276	5.1721	5.1265 H
154 H154	-1.7201	6.0937	3.7390 H
155 O155	-0.6604	3.6731	-1.2964 O
156 H156	-0.3454	2.1013	-2.5455 H
157 C157	-0.4166	3.1994	-2.4119 C
158 C158	-0.1953	4.0098	-3.6733 C
159 C159	-0.3837	5.5140	-3.4375 C
160 H160	-1.4199	5.7345	-3.1578 H
161 H161	-0.1443	6.0787	-4.3448 H
162 H162	0.2566	5.8692	-2.6247 H
163 C163	-1.0968	3.4628	-4.8065 C
164 H164	0.8520	3.8158	-3.9675 H
165 H165	-0.9566	2.3846	-4.9502 H
166 H166	-0.8623	3.9627	-5.7519 H
167 H167	-2.1545	3.6423	-4.5811 H
168 O168	0.8647	4.0859	-0.4590 O
169 H169	1.2558	4.7654	-2.3339 H
170 C170	1.6321	4.2886	-1.4067 C
171 C171	3.1052	3.9332	-1.4265 C
172 C172	3.5797	3.3496	-0.0893 C
173 H173	3.4965	4.0955	0.7091 H
174 H174	4.6260	3.0330	-0.1571 H
175 H175	2.9715	2.4888	0.2036 H
176 C176	3.9307	5.1654	-1.8698 C
177 H177	3.2125	3.1676	-2.2161 H
178 H178	3.5676	5.5747	-2.8203 H
179 H179	4.9821	4.8898	-2.0005 H
180 H180	3.8790	5.9584	-1.1147 H
181 O181	-0.1353	4.2171	0.2549 O
182 H182	0.2637	5.0632	-1.5493 H
183 C183	0.5630	4.9109	-0.4929 C
184 C184	1.8475	5.6062	-0.0887 C
185 C185	2.1643	5.4206	1.4008 C
186 H186	1.3971	5.8971	2.0213 H
187 H187	3.1332	5.8680	1.6470 H
188 H188	2.1897	4.3605	1.6698 H
189 C189	1.7860	7.0950	-0.5079 C
190 H190	2.6418	5.1302	-0.6918 H
191 H191	1.5458	7.2060	-1.5722 H
192 H192	2.7510	7.5796	-0.3272 H
193 H193	1.0241	7.6295	0.0714 H
194 O194	-0.7127	3.2146	-1.7288 O
195 H195	-1.5292	1.6532	-2.7415 H
196 C196	-0.8289	2.5125	-2.7396 C
197 C197	-0.0732	2.7205	-4.0367 C
198 C198	0.8187	3.9681	-3.9953 C
199 H199	0.2112	4.8742	-3.8929 H
200 H200	1.4079	4.0507	-4.9148 H
201 H201	1.5031	3.9357	-3.1425 H
202 C202	-1.0695	2.7345	-5.2214 C
203 H203	0.5611	1.8234	-4.1547 H
204 H204	-1.7058	1.8412	-5.2253 H
205 H205	-0.5273	2.7671	-6.1719 H
206 H206	-1.7192	3.6161	-5.1709 H
207 O207	-0.2766	3.1150	1.9260 O
208 H208	-0.9265	4.9444	2.5270 H
209 C209	-0.6489	3.9064	2.7996 C
210 C210	-0.7688	3.5822	4.2752 C
211 C211	-0.4459	2.1127	4.5748 C
212 H212	-1.1768	1.4511	4.0966 H
213 H213	-0.4668	1.9262	5.6538 H
214 H214	0.5416	1.8395	4.1913 H
215 C215	-2.1666	4.0057	4.7878 C
216 H216	-0.0272	4.2279	4.7794 H
217 H217	-2.3830	5.0548	4.5524 H
218 H218	-2.2243	3.8846	5.8744 H
219 H219	-2.9495	3.3859	4.3352 H
220 O220	0.9943	4.0039	0.5723 O
221 H221	1.9918	4.6872	-1.0612 H
222 C222	2.0360	4.2183	-0.0577 C
223 C223	3.4326	3.8881	0.4295 C
224 C224	3.4307	3.3148	1.8525 C
225 H225	3.0682	4.0603	2.5690 H
226 H226	4.4420	3.0159	2.1484 H
227 H227	2.7725	2.4441	1.9262 H
228 C228	4.3406	5.1336	0.2858 C
229 H229	3.8151	3.1233	-0.2705 H
230 H230	4.3177	5.5352	-0.7345 H
231 H231	5.3776	4.8759	0.5241 H
232 H232	4.0217	5.9268	0.9721 H
233 O233	1.1945	3.6386	-1.1592 O
234 H234	2.5677	4.1051	0.2645 H
235 C235	2.2178	4.2199	-0.7811 C
236 C236	3.0814	5.1155	-1.6465 C
237 C237	2.5884	5.1706	-3.0982 C
238 H238	2.6688	4.1855	-3.5712 H
239 H239	3.1841	5.8818	-3.6803 H
240 H240	1.5377	5.4713	-3.1470 H
241 C241	4.5616	4.6774	-1.5319 C
242 H242	3.0036	6.1221	-1.1973 H
243 H243	4.8903	4.6319	-0.4866 H
244 H244	5.2084	5.3864	-2.0587 H
245 H245	4.7084	3.6873	-1.9791 H
246 O246	-1.5490	2.9774	1.6778 O
247 H247	-2.4061	4.4504	2.7849 H
248 C248	-2.0374	3.4065	2.7292 C
249 C249	-2.1889	2.6088	4.0089 C
250 C250	-1.7328	1.1535	3.8433 C
251 H251	-2.3714	0.6277	3.1248 H
252 H252	-1.7823	0.6233	4.8004 H
253 H253	-0.7068	1.1018	3.4670 H
254 C254	-3.6435	2.7265	4.5249 C
255 H255	-1.5392	3.1120	4.7477 H
256 H256	-3.9541	3.7737	4.6239 H
257 H257	-3.7365	2.2524	5.5073 H
258 H258	-4.3391	2.2275	3.8401 H
259 O259	0.3379	4.2079	0.3838 O
260 H260	-0.0694	3.8705	-1.5785 H
261 C261	-0.2116	4.5073	-0.6823 C
262 C262	-1.1020	5.7151	-0.8946 C
263 C263	-1.3208	6.5097	0.3994 C
264 H264	-1.8621	5.9062	1.1366 H
265 H265	-1.9036	7.4155	0.2010 H
266 H266	-0.3672	6.7988	0.8510 H
267 C267	-2.4286	5.2720	-1.5579 C
268 H268	-0.5680	6.3493	-1.6252 H
269 H269	-2.2500	4.6950	-2.4734 H
270 H270	-3.0307	6.1473	-1.8225 H
271 H271	-3.0161	4.6506	-0.8720 H
272 O272	3.8843	-2.8388	0.6009 O
273 H273	2.1790	-3.9352	0.4605 H
274 C274	3.1833	-3.8081	0.9123 C
275 C275	3.5800	-4.8901	1.8965 C
276 C276	5.0072	-4.6987	2.4256 C
277 H277	5.7367	-4.7967	1.6139 H
278 H278	5.2386	-5.4492	3.1890 H
279 H279	5.1361	-3.7039	2.8621 H
280 C280	3.3598	-6.2816	1.2549 C
281 H281	2.8659	-4.8011	2.7351 H
282 H282	2.3382	-6.3932	0.8717 H
283 H283	3.5314	-7.0709	1.9938 H
284 H284	4.0555	-6.4389	0.4224 H
285 O285	4.0073	-3.5306	-1.0225 O
286 H286	5.5115	-4.8945	-1.1089 H
287 C287	4.7763	-4.3400	-0.4918 C
288 C288	4.8148	-4.6638	0.9882 C
289 C289	3.8293	-3.8089	1.7954 C
290 H290	4.1068	-2.7500	1.7472 H
291 H291	3.8245	-4.1161	2.8466 H
292 H292	2.8133	-3.8984	1.3998 H
293 C293	6.2693	-4.5525	1.5063 C
294 H294	4.5219	-5.7265	1.0645 H
295 H295	6.9592	-5.1603	0.9084 H
296 H296	6.3291	-4.8962	2.5440 H
297 H297	6.6141	-3.5124	1.4728 H
298 O298	-5.3355	-1.2200	5.3137 O
299 H299	-5.7098	-1.9409	3.4508 H
300 C300	-4.9868	-1.4875	4.1583 C
301 C301	-3.6041	-1.2452	3.5872 C
302 C302	-2.6762	-0.5466	4.5896 C
303 H303	-3.0469	0.4574	4.8244 H
304 H304	-1.6656	-0.4530	4.1780 H
305 H305	-2.6212	-1.1026	5.5301 H
306 C306	-3.7228	-0.4809	2.2464 C
307 H307	-3.2014	-2.2480	3.3564 H
308 H308	-4.3999	-0.9895	1.5495 H
309 H309	-2.7416	-0.4022	1.7670 H
310 H310	-4.1023	0.5342	2.4113 H
311 O311	-7.0085	1.0714	3.1921 O
312 H312	-5.2121	1.1463	4.1394 H
313 C313	-5.7724	1.0819	3.1851 C
314 C314	-4.9074	1.0120	1.9426 C
315 C315	-5.7396	0.8464	0.6645 C
316 H316	-6.2728	-0.1108	0.6718 H
317 H317	-5.0953	0.8749	-0.2207 H
318 H318	-6.4901	1.6375	0.5769 H
319 C319	-3.8426	-0.0984	2.1132 C
320 H320	-4.3695	1.9765	1.9042 H
321 H321	-3.2680	0.0308	3.0384 H
322 H322	-3.1397	-0.0814	1.2740 H
323 H323	-4.3149	-1.0874	2.1402 H
324 O324	1.0517	-5.9795	-2.1090 O
325 H325	1.2393	-8.0023	-2.0515 H
326 C326	1.5231	-7.0426	-2.5282 C
327 C327	2.4959	-7.1690	-3.6833 C
328 C328	2.7872	-5.8171	-4.3476 C
329 H329	1.8801	-5.4088	-4.8069 H
330 H330	3.5484	-5.9274	-5.1273 H
331 H331	3.1399	-5.0853	-3.6149 H
332 C332	1.9780	-8.2300	-4.6845 C
333 H333	3.4278	-7.5655	-3.2411 H
334 H334	1.7638	-9.1840	-4.1879 H
335 H335	2.7265	-8.4145	-5.4618 H
336 H336	1.0591	-7.8856	-5.1732 H
337 O337	-6.3807	-2.3693	0.6412 O
338 H338	-5.5310	-3.0962	-1.0558 H
339 C339	-5.4590	-2.4191	-0.1811 C
340 C340	-4.1809	-1.6080	-0.1076 C
341 C341	-4.1771	-0.6368	1.0800 C
342 H342	-4.9644	0.1167	0.9656 H
343 H343	-3.2139	-0.1203	1.1518 H
344 H344	-4.3632	-1.1632	2.0208 H
345 C345	-3.9370	-0.8998	-1.4623 C
346 H346	-3.3704	-2.3474	0.0243 H
347 H347	-3.9565	-1.6090	-2.2987 H
348 H348	-2.9599	-0.4059	-1.4611 H
349 H349	-4.7027	-0.1367	-1.6440 H
350 O350	2.0634	-7.1007	0.2100 O
351 H351	3.4132	-6.3648	1.5392 H
352 C352	2.4801	-6.9364	1.3622 C
353 C353	1.8095	-7.4639	2.6148 C
354 C354	0.4861	-8.1769	2.3085 C
355 H355	-0.2439	-7.4742	1.8915 H
356 H356	0.0633	-8.6121	3.2203 H
357 H357	0.6285	-8.9743	1.5732 H
358 C358	1.6489	-6.3157	3.6404 C
359 H359	2.5224	-8.1895	3.0466 H
360 H360	2.6029	-5.8111	3.8355 H
361 H361	1.2732	-6.7070	4.5914 H
362 H362	0.9354	-5.5675	3.2758 H
363 O363	-2.7128	-6.0511	0.2890 O
364 H364	-2.8817	-6.1278	2.3128 H
365 C365	-3.3378	-6.3205	1.3210 C
366 C366	-4.7308	-6.9158	1.3658 C
367 C367	-5.3349	-7.0854	-0.0341 C
368 H368	-5.4772	-6.1109	-0.5143 H
369 H369	-6.3074	-7.5858	0.0244 H
370 H370	-4.6764	-7.6742	-0.6794 H
371 C371	-5.6254	-6.0732	2.3071 C
372 H372	-4.6109	-7.9098	1.8334 H
373 H373	-5.1699	-5.9531	3.2975 H
374 H374	-6.5981	-6.5578	2.4392 H
375 H375	-5.7976	-5.0752	1.8873 H
376 O376	1.7485	-5.6786	0.1943 O
377 H377	1.7265	-6.0707	2.1883 H
378 C378	1.7650	-6.4608	1.1514 C
379 C379	1.8358	-7.9707	1.0416 C
380 C380	1.8082	-8.4488	-0.4159 C
381 H381	0.8537	-8.1920	-0.8887 H
382 H382	1.9366	-9.5353	-0.4671 H
383 H383	2.6009	-7.9745	-1.0019 H
384 C384	0.7179	-8.6068	1.9029 C
385 H385	2.8010	-8.2539	1.4993 H
386 H386	0.7471	-8.2424	2.9369 H
387 H387	0.8301	-9.6956	1.9252 H
388 H388	-0.2700	-8.3759	1.4874 H
389 O389	-3.4329	3.4596	-4.6181 O
390 H390	-5.1255	2.3355	-4.6592 H
391 C391	-4.1147	2.5020	-4.2357 C
392 C392	-3.6847	1.4859	-3.1967 C
393 C393	-2.2504	1.7264	-2.7082 C
394 H394	-1.5352	1.5890	-3.5269 H
395 H395	-1.9944	1.0260	-1.9061 H
396 H396	-2.1268	2.7471	-2.3345 H
397 C397	-3.8982	0.0559	-3.7496 C
398 H398	-4.3839	1.6162	-2.3509 H
399 H399	-4.9252	-0.0912	-4.1051 H
400 H400	-3.7019	-0.6855	-2.9684 H
401 H401	-3.2163	-0.1424	-4.5848 H
402 O402	-1.8303	-4.8665	4.9630 O
403 H403	-2.9796	-5.5866	6.4766 H
404 C404	-2.6020	-5.7055	5.4412 C
405 C405	-3.1063	-6.9379	4.7174 C
406 C406	-2.6104	-7.0031	3.2671 C
407 H407	-3.0130	-6.1680	2.6831 H
408 H408	-2.9270	-7.9387	2.7938 H
409 H409	-1.5193	-6.9385	3.2199 H
410 C410	-4.6487	-7.0099	4.8277 C
411 H411	-2.6988	-7.7970	5.2804 H
412 H412	-4.9829	-6.9487	5.8705 H
413 H413	-5.0146	-7.9537	4.4107 H
414 H414	-5.1157	-6.1891	4.2709 H
415 O415	-3.2397	-4.5664	-1.0020 O
416 H416	-3.5508	-2.6423	-1.5774 H
417 C417	-3.8582	-3.7056	-1.6380 C
418 C418	-5.0507	-3.9733	-2.5342 C
419 C419	-5.3762	-5.4691	-2.6360 C
420 H420	-4.5547	-6.0115	-3.1171 H
421 H421	-6.2850	-5.6259	-3.2269 H
422 H422	-5.5224	-5.9094	-1.6454 H
423 C423	-4.8201	-3.3142	-3.9158 C
424 H424	-5.8990	-3.4477	-2.0597 H
425 H425	-4.5762	-2.2493	-3.8202 H
426 H426	-5.7211	-3.4004	-4.5317 H
427 H427	-3.9973	-3.8064	-4.4474 H
428 O428	-6.9963	-2.1891	-3.6735 O
429 H429	-5.3967	-0.9356	-3.6931 H
430 C430	-5.8234	-1.9147	-3.3960 C
431 C431	-4.8668	-2.8273	-2.6550 C
432 C432	-5.5392	-4.1307	-2.2049 C
433 H433	-6.3304	-3.9254	-1.4752 H
434 H434	-4.8078	-4.8007	-1.7405 H
435 H435	-6.0013	-4.6488	-3.0504 H
436 C436	-4.2136	-2.0538	-1.4840 C
437 H437	-4.0649	-3.0622	-3.3781 H
438 H438	-3.7504	-1.1199	-1.8245 H
439 H439	-3.4362	-2.6645	-1.0136 H
440 H440	-4.9593	-1.8060	-0.7195 H
441 O441	-1.9961	-6.9232	3.1884 O
442 H442	-0.1127	-6.3991	2.6332 H
443 C443	-0.7967	-7.1764	3.0292 C
444 C444	-0.1386	-8.5066	3.3365 C
445 C445	-1.1206	-9.5115	3.9525 C
446 H446	-1.4745	-9.1580	4.9274 H
447 H447	-0.6379	-10.4845	4.0934 H
448 H448	-1.9996	-9.6457	3.3152 H
449 C449	1.1137	-8.2752	4.2164 C
450 H450	0.2138	-8.8922	2.3628 H
451 H451	1.7959	-7.5447	3.7650 H
452 H452	1.6626	-9.2133	4.3483 H
453 H453	0.8275	-7.9072	5.2086 H
454 O454	-3.2838	2.5309	-4.8264 O
455 H455	-3.3215	2.6546	-2.7982 H
456 C456	-3.0514	2.0726	-3.7021 C
457 C457	-2.4034	0.7309	-3.4249 C
458 C458	-2.1257	-0.0567	-4.7119 C
459 H459	-3.0631	-0.3132	-5.2178 H
460 H460	-1.5904	-0.9853	-4.4869 H
461 H461	-1.5267	0.5317	-5.4131 H
462 C462	-3.2635	-0.0614	-2.4107 C
463 H463	-1.4449	0.9644	-2.9272 H
464 H464	-3.4613	0.5234	-1.5042 H
465 H465	-2.7484	-0.9807	-2.1138 H
466 H466	-4.2267	-0.3401	-2.8539 H
467 O467	-2.7743	-7.0730	7.9670 O
468 H468	-1.0478	-6.2409	8.6431 H
469 C469	-1.7828	-6.3494	7.8204 C
470 C470	-1.4580	-5.5594	6.5685 C
471 C471	-2.4696	-5.8129	5.4433 C
472 H472	-2.4302	-6.8579	5.1163 H
473 H473	-2.2538	-5.1737	4.5805 H
474 H474	-3.4916	-5.6143	5.7793 H
475 C475	0.0014	-5.8450	6.1386 C
476 H476	-1.5073	-4.4974	6.8698 H
477 H477	0.7066	-5.6704	6.9601 H
478 H478	0.2852	-5.1935	5.3057 H
479 H479	0.1119	-6.8847	5.8091 H
480 O480	7.7703	-3.6931	2.2712 O
481 H481	6.9543	-3.2440	4.0775 H
482 C482	6.8112	-3.3840	2.9872 C
483 C483	5.3930	-3.1676	2.4985 C
484 C484	5.2776	-3.2997	0.9744 C
485 H485	5.8546	-2.5142	0.4737 H
486 H486	4.2324	-3.2137	0.6586 H
487 H487	5.6692	-4.2616	0.6309 H
488 C488	4.8639	-1.8114	3.0248 C
489 H489	4.7921	-3.9606	2.9791 H
490 H490	4.9673	-1.7320	4.1137 H
491 H491	3.8037	-1.6964	2.7769 H
492 H492	5.4113	-0.9784	2.5684 H
493 O493	-5.8602	-3.0772	-1.8110 O
494 H494	-5.3116	-4.7937	-0.8714 H
495 C495	-5.5054	-3.7042	-0.8065 C
496 C496	-5.2995	-3.1020	0.5689 C
497 C497	-5.5076	-1.5821	0.5743 C
498 H498	-4.7546	-1.0867	-0.0486 H
499 H499	-5.4271	-1.1861	1.5923 H
500 H500	-6.4898	-1.3168	0.1721 H
501 C501	-3.9129	-3.5195	1.1161 C
502 H502	-6.0609	-3.5759	1.2145 H
503 H503	-3.7794	-4.6078	1.0916 H
504 H504	-3.7999	-3.1886	2.1536 H
505 H505	-3.1099	-3.0637	0.5252 H
@<TRIPOS>BOND
1 1 2 2
2 1 3 1
3 1 16 1
4 3 4 1
5 5 9 1
6 5 15 1
7 5 16 1
8 6 7 1
9 6 8 1
10 6 9 2
11 9 10 1
12 10 11 1
13 10 12 1
14 10 13 1
15 14 15 1
16 14 17 1
17 14 18 1
18 14 19 1
19 15 20 1
20 15 21 1
21 16 17 1
22 16 22 1
23 17 23 1
24 17 24 1
25 25 27 2
26 26 27 1
27 27 28 1
28 28 29 1
29 28 33 1
30 28 34 1
31 29 30 1
32 29 31 1
33 29 32 1
34 33 35 1
35 33 36 1
36 33 37 1
37 38 40 2
38 39 40 1
39 40 41 1
40 41 42 1
41 41 46 1
42 41 47 1
43 42 43 1
44 42 44 1
45 42 45 1
46 46 48 1
47 46 49 1
48 46 50 1
49 51 53 2
50 52 53 1
51 53 54 1
52 54 55 1
53 54 59 1
54 54 60 1
55 55 56 1
56 55 57 1
57 55 58 1
58 59 61 1
59 59 62 1
60 59 63 1
61 64 66 2
62 65 66 1
63 66 67 1
64 67 68 1
65 67 72 1
66 67 73 1
67 68 69 1
68 68 70 1
69 68 71 1
70 72 74 1
71 72 75 1
72 72 76 1
73 77 79 2
74 78 79 1
75 79 80 1
76 80 81 1
77 80 85 1
78 80 86 1
79 81 82 1
80 81 83 1
81 81 84 1
82 85 87 1
83 85 88 1
84 85 89 1
85 90 92 2
86 91 92 1
87 92 93 1
88 93 94 1
89 93 98 1
90 93 99 1
91 94 95 1
92 94 96 1
93 94 97 1
94 98 100 1
95 98 101 1
96 98 102 1
97 103 105 2
98 104 105 1
99 105 106 1
100 106 107 1
101 106 111 1
102 106 112 1
103 107 108 1
104 107 109 1
105 107 110 1
106 111 113 1
107 111 114 1
108 111 115 1
109 116 118 2
110 117 118 1
111 118 119 1
112 119 120 1
113 119 124 1
114 119 125 1
115 120 121 1
116 120 122 1
117 120 123 1
118 124 126 1
119 124 127 1
120 124 128 1
121 129 131 2
122 130 131 1
123 131 132 1
124 132 133 1
125 132 137 1
126 132 138 1
127 133 134 1
128 133 135 1
129 133 136 1
130 137 139 1
131 137 140 1
132 137 141 1
133 142 144 2
134 143 144 1
135 144 145 1
136 145 146 1
137 145 150 1
138 145 151 1
139 146 147 1
140 146 148 1
141 146 149 1
142 150 152 1
143 150 153 1
144 150 154 1
145 155 157 2
146 156 157 1
147 157 158 1
148 158 159 1
149 158 163 1
150 158 164 1
151 159 160 1
152 159 161 1
153 159 162 1
154 163 165 1
155 163 166 1
156 163 167 1
157 168 170 2
158 169 170 1
159 170 171 1
160 171 172 1
161 171 176 1
162 171 177 1
163 172 173 1
164 172 174 1
165 172 175 1
166 176 178 1
167 176 179 1
168 176 180 1
169 181 183 2
170 182 183 1
171 183 184 1
172 184 185 1
173 184 189 1
174 184 190 1
175 185 186 1
176 185 187 1
177 185 188 1
178 189 191 1
179 189 192 1
180 189 193 1
181 194 196 2
182 195 196 1
183 196 197 1
184 197 198 1
185 197 202 1
186 197 203 1
187 198 199 1
188 198 200 1
189 198 201 1
190 202 204 1
191 202 205 1
192 202 206 1
193 207 209 2
194 208 209 1
195 209 210 1
196 210 211 1
197 210 215 1
198 210 216 1
199 211 212 1
200 211 213 1
201 211 214 1
202 215 217 1
203 215 218 1
204 215 219 1
205 220 222 2
206 221 222 1
207 222 223 1
208 223 224 1
209 223 228 1
210 223 229 1
211 224 225 1
212 224 226 1
213 224 227 1
214 228 230 1
215 228 231 1
216 228 232 1
217 233 235 2
218 234 235 1
219 235 236 1
220 236 237 1
221 236 241 1
222 236 242 1
223 237 238 1
224 237 239 1
225 237 240 1
226 241 243 1
227 241 244 1
228 241 245 1
229 246 248 2
230 247 248 1
231 248 249 1
232 249 250 1
233 249 254 1
234 249 255 1
235 250 251 1
236 250 252 1
237 250 253 1
238 254 256 1
239 254 257 1
240 254 258 1
241 259 261 2
242 260 261 1
243 261 262 1
244 262 263 1
245 262 267 1
246 262 268 1
247 263 264 1
248 263 265 1
249 263 266 1
250 267 269 1
251 267 270 1
252 267 271 1
253 272 274 2
254 273 274 1
255 274 275 1
256 275 276 1
257 275 280 1
258 275 281 1
259 276 277 1
260 276 278 1
261 276 279 1
262 280 282 1
263 280 283 1
264 280 284 1
265 285 287 2
266 286 287 1
267 287 288 1
268 288 289 1
269 288 293 1
270 288 294 1
271 289 290 1
272 289 291 1
273 289 292 1
274 293 295 1
275 293 296 1
276 293 297 1
277 298 300 2
278 299 300 1
279 300 301 1
280 301 302 1
281 301 306 1
282 301 307 1
283 302 303 1
284 302 304 1
285 302 305 1
286 306 308 1
287 306 309 1
288 306 310 1
289 311 313 2
290 312 313 1
291 313 314 1
292 314 315 1
293 314 319 1
294 314 320 1
295 315 316 1
296 315 317 1
297 315 318 1
298 319 321 1
299 319 322 1
300 319 323 1
301 324 326 2
302 325 326 1
303 326 327 1
304 327 328 1
305 327 332 1
306 327 333 1
307 328 329 1
308 328 330 1
309 328 331 1
310 332 334 1
311 332 335 1
312 332 336 1
313 337 339 2
314 338 339 1
315 339 340 1
316 340 341 1
317 340 345 1
318 340 346 1
319 341 342 1
320 341 343 1
321 341 344 1
322 345 347 1
323 345 348 1
324 345 349 1
325 350 352 2
326 351 352 1
327 352 353 1
328 353 354 1
329 353 358 1
330 353 359 1
331 354 355 1
332 354 356 1
333 354 357 1
334 358 360 1
335 358 361 1
336 358 362 1
337 363 365 2
338 364 365 1
339 365 366 1
340 366 367 1
341 366 371 1
342 366 372 1
343 367 368 1
344 367 369 1
345 367 370 1
346 371 373 1
347 371 374 1
348 371 375 1
349 376 378 2
350 377 378 1
351 378 379 1
352 379 380 1
353 379 384 1
354 379 385 1
355 380 381 1
356 380 382 1
357 380 383 1
358 384 386 1
359 384 387 1
360 384 388 1
361 389 391 2
362 390 391 1
363 391 392 1
364 392 393 1
365 392 397 1
366 392 398 1
367 393 394 1
368 393 395 1
369 393 396 1
370 397 399 1
371 397 400 1
372 397 401 1
373 402 404 2
374 403 404 1
375 404 405 1
376 405 406 1
377 405 410 1
378 405 411 1
379 406 407 1
380 406 408 1
381 406 409 1
382 410 412 1
383 410 413 1
384 410 414 1
385 415 417 2
386 416 417 1
387 417 418 1
388 418 419 1
389 418 423 1
390 418 424 1
391 419 420 1
392 419 421 1
393 419 422 1
394 423 425 1
395 423 426 1
396 423 427 1
397 428 430 2
398 429 430 1
399 430 431 1
400 431 432 1
401 431 436 1
402 431 437 1
403 432 433 1
404 432 434 1
405 432 435 1
406 436 438 1
407 436 439 1
408 436 440 1
409 441 443 2
410 442 443 1
411 443 444 1
412 444 445 1
413 444 449 1
414 444 450 1
415 445 446 1
416 445 447 1
417 445 448 1
418 449 451 1
419 449 452 1
420 449 453 1
421 454 456 2
422 455 456 1
423 456 457 1
424 457 458 1
425 457 462 1
426 457 463 1
427 458 459 1
428 458 460 1
429 458 461 1
430 462 464 1
431 462 465 1
432 462 466 1
433 467 469 2
434 468 469 1
435 469 470 1
436 470 471 1
437 470 475 1
438 470 476 1
439 471 472 1
440 471 473 1
441 471 474 1
442 475 477 1
443 475 478 1
444 475 479 1
445 480 482 2
446 481 482 1
447 482 483 1
448 483 484 1
449 483 488 1
450 483 489 1
451 484 485 1
452 484 486 1
453 484 487 1
454 488 490 1
455 488 491 1
456 488 492 1
457 493 495 2
458 494 495 1
459 495 496 1
460 496 497 1
461 496 501 1
462 496 502 1
463 497 498 1
464 497 499 1
465 497 500 1
466 501 503 1
467 501 504 1
468 501 505 1
