@<TRIPOS>MOLECULE
Molecule Name
258 240
SMALL
NO_CHARGES

@<TRIPOS>ATOM
1 C1	0.0000	0.0000	0.0000 C
2 O2	-1.2293	0.0000	0.0000 O
3 O3	0.7314	1.1569	0.0000 O
4 H4	1.6899	0.9074	-0.0283 H
5 N5	2.2776	-1.0181	-0.1223 N
6 C6	2.1005	-1.0107	-2.5522 C
7 H7	1.0179	-1.0072	-2.5617 H
8 H8	2.5871	-0.9697	-3.5184 H
9 C9	2.8433	-1.0258	-1.4257 C
10 C10	4.3542	-0.9790	-1.4743 C
11 H11	4.8090	-1.8616	-1.0082 H
12 H12	4.6938	-0.9350	-2.5110 H
13 H13	4.7456	-0.0961	-0.9525 H
14 C14	2.0037	-1.4736	2.1884 C
15 C15	3.0541	-1.4678	1.0681 C
16 C16	0.8316	-1.2920	0.0623 C
17 C17	0.7310	-1.9564	1.4635 C
18 H18	2.2902	-2.1216	3.0213 H
19 H19	1.8606	-0.4598	2.5813 H
20 H20	3.4638	-2.4785	0.9170 H
21 H21	3.8877	-0.7896	1.2686 H
22 H22	0.4494	-1.9638	-0.7142 H
23 H23	-0.1979	-1.6881	1.9716 H
24 H24	0.7508	-3.0461	1.3491 H
25 O25	-2.1364	-3.4667	-0.3224 O
26 H26	-3.2351	-2.5255	1.1048 H
27 C27	-3.0885	-2.7625	0.0319 C
28 C28	-4.1231	-2.1632	-0.8995 C
29 C29	-3.8204	-2.4629	-2.3733 C
30 H30	-2.8809	-1.9891	-2.6789 H
31 H31	-4.6223	-2.0836	-3.0158 H
32 H32	-3.7142	-3.5383	-2.5436 H
33 C33	-4.2649	-0.6488	-0.6122 C
34 H34	-5.0806	-2.6390	-0.6205 H
35 H35	-4.4680	-0.4555	0.4481 H
36 H36	-5.0899	-0.2280	-1.1961 H
37 H37	-3.3478	-0.1147	-0.8869 H
38 O38	4.7211	1.6780	0.5068 O
39 H39	3.9698	3.4010	1.2794 H
40 C40	4.7824	2.6471	1.2718 C
41 C41	5.9115	2.9184	2.2456 C
42 C42	6.9628	1.8011	2.2415 C
43 H43	6.5274	0.8596	2.5944 H
44 H44	7.8016	2.0595	2.8966 H
45 H45	7.3476	1.6250	1.2328 H
46 C46	5.3286	3.1885	3.6540 C
47 H47	6.3782	3.8586	1.9002 H
48 H48	4.5705	3.9807	3.6329 H
49 H49	6.1234	3.4998	4.3396 H
50 H50	4.8645	2.2827	4.0615 H
51 O51	-1.8444	-4.2524	1.1356 O
52 H52	-2.1460	-2.2573	0.8935 H
53 C53	-2.5404	-3.2356	1.2344 C
54 C54	-3.9449	-3.1928	1.8021 C
55 C55	-4.4601	-4.5868	2.1826 C
56 H56	-4.5514	-5.2210	1.2937 H
57 H57	-5.4441	-4.5169	2.6583 H
58 H58	-3.7729	-5.0871	2.8713 H
59 C59	-4.8818	-2.4561	0.8143 C
60 H60	-3.8755	-2.5695	2.7120 H
61 H61	-4.4894	-1.4679	0.5452 H
62 H62	-5.8706	-2.3161	1.2629 H
63 H63	-5.0064	-3.0363	-0.1074 H
64 O64	5.6400	-3.7780	-0.0473 O
65 H65	5.3321	-5.6296	0.7318 H
66 C66	5.8842	-4.9882	0.0158 C
67 C67	6.9116	-5.7150	-0.8285 C
68 C68	7.5838	-4.7887	-1.8501 C
69 H69	6.8524	-4.4213	-2.5786 H
70 H70	8.3723	-5.3214	-2.3924 H
71 H71	8.0243	-3.9150	-1.3607 H
72 C72	6.2605	-6.9576	-1.4829 C
73 H73	7.6714	-6.0826	-0.1153 H
74 H74	5.7748	-7.5994	-0.7379 H
75 H75	7.0188	-7.5545	-1.9999 H
76 H76	5.5054	-6.6571	-2.2187 H
77 O77	-0.3743	2.7387	-2.7395 O
78 H78	-0.5072	3.3803	-0.8157 H
79 C79	-1.0075	2.9260	-1.6944 C
80 C80	-2.4682	2.5797	-1.4866 C
81 C81	-3.1210	2.0281	-2.7607 C
82 H82	-3.1375	2.7904	-3.5476 H
83 H83	-4.1519	1.7168	-2.5612 H
84 H84	-2.5649	1.1698	-3.1492 H
85 C85	-3.2162	3.8073	-0.9126 C
86 H86	-2.4769	1.7980	-0.7056 H
87 H87	-2.7267	4.1938	-0.0105 H
88 H88	-4.2436	3.5358	-0.6493 H
89 H89	-3.2577	4.6161	-1.6515 H
90 O90	4.7912	1.2929	1.6212 O
91 H91	3.7327	1.3356	3.3555 H
92 C92	4.6639	1.5952	2.8130 C
93 C93	5.7039	2.3193	3.6443 C
94 C94	6.9958	2.5801	2.8591 C
95 H95	7.4813	1.6357	2.5891 H
96 H96	7.6982	3.1693	3.4585 H
97 H97	6.7907	3.1192	1.9296 H
98 C98	5.9485	1.5428	4.9609 C
99 H99	5.2421	3.2855	3.9166 H
100 H100	5.0120	1.3555	5.5000 H
101 H101	6.6093	2.1145	5.6206 H
102 H102	6.4248	0.5765	4.7581 H
103 O103	-4.4646	0.6833	4.2077 O
104 H104	-4.9011	-0.5861	2.6819 H
105 C105	-4.3744	0.3258	3.0278 C
106 C106	-3.5777	1.0452	1.9579 C
107 C107	-2.9381	2.3378	2.4809 C
108 H108	-3.7090	3.0609	2.7701 H
109 H109	-2.3088	2.7952	1.7100 H
110 H110	-2.3238	2.1445	3.3651 H
111 C111	-4.4700	1.2778	0.7146 C
112 H112	-2.7811	0.3396	1.6601 H
113 H113	-4.9275	0.3445	0.3647 H
114 H114	-3.8753	1.6909	-0.1066 H
115 H115	-5.2739	1.9877	0.9419 H
116 O116	-3.6701	5.3616	1.5106 O
117 H117	-3.2271	5.1633	-0.4629 H
118 C118	-3.0422	4.8412	0.5816 C
119 C119	-1.9960	3.7558	0.7372 C
120 C120	-1.7318	3.4108	2.2085 C
121 H121	-1.3040	4.2705	2.7362 H
122 H122	-1.0295	2.5740	2.2875 H
123 H123	-2.6585	3.1400	2.7229 H
124 C124	-0.7105	4.1611	-0.0241 C
125 H125	-2.4127	2.8699	0.2248 H
126 H126	-0.9228	4.4160	-1.0694 H
127 H127	0.0097	3.3365	-0.0172 H
128 H128	-0.2370	5.0290	0.4496 H
129 O129	-1.2896	3.5745	-4.0518 O
130 H130	-0.6844	2.5930	-2.3783 H
131 C131	-1.4639	2.7455	-3.1515 C
132 C132	-2.6957	1.8769	-2.9933 C
133 C133	-3.7664	2.1906	-4.0463 C
134 H134	-4.1432	3.2119	-3.9221 H
135 H135	-4.6105	1.4987	-3.9550 H
136 H136	-3.3587	2.1138	-5.0586 H
137 C137	-3.2283	1.9903	-1.5442 C
138 H138	-2.3432	0.8387	-3.1307 H
139 H139	-2.4449	1.7752	-0.8074 H
140 H140	-4.0462	1.2803	-1.3846 H
141 H141	-3.6117	2.9988	-1.3501 H
142 O142	2.2088	2.9300	-3.2011 O
143 H143	0.7354	2.4869	-1.8733 H
144 C144	1.0831	3.1087	-2.7225 C
145 C145	0.0854	4.1425	-3.2049 C
146 C146	0.6550	5.0197	-4.3272 C
147 H147	1.4993	5.6149	-3.9618 H
148 H148	-0.1107	5.7048	-4.7065 H
149 H149	1.0211	4.4092	-5.1579 H
150 C150	-0.4296	4.9682	-2.0010 C
151 H151	-0.7720	3.5644	-3.5943 H
152 H152	-0.8202	4.3225	-1.2052 H
153 H153	-1.2352	5.6383	-2.3182 H
154 H154	0.3753	5.5812	-1.5789 H
155 O155	3.2192	2.6306	-2.2591 O
156 H156	1.9127	1.2411	-2.9609 H
157 C157	2.1707	2.3113	-2.8308 C
158 C158	1.1561	3.2840	-3.3975 C
159 C159	1.5325	4.7446	-3.1170 C
160 H160	1.5220	4.9464	-2.0401 H
161 H161	0.8238	5.4246	-3.6017 H
162 H162	2.5391	4.9697	-3.4816 H
163 C163	-0.2571	2.9191	-2.8819 C
164 H164	1.1599	3.1103	-4.4888 H
165 H165	-0.5014	1.8686	-3.0804 H
166 H166	-1.0121	3.5403	-3.3745 H
167 H167	-0.3309	3.0883	-1.8012 H
168 O168	-7.8871	-0.4476	0.8532 O
169 H169	-6.8496	1.1153	1.6351 H
170 C170	-6.8676	0.2450	0.9487 C
171 C171	-5.5801	0.0105	0.1844 C
172 C172	-5.6437	-1.2505	-0.6870 C
173 H173	-5.7503	-2.1457	-0.0641 H
174 H174	-4.7308	-1.3527	-1.2834 H
175 H175	-6.5026	-1.2196	-1.3638 H
176 C176	-4.3862	-0.0007	1.1696 C
177 H177	-5.4584	0.8961	-0.4653 H
178 H178	-4.3664	0.9025	1.7914 H
179 H179	-3.4413	-0.0525	0.6191 H
180 H180	-4.4401	-0.8712	1.8338 H
181 O181	5.4599	-0.2520	-4.5660 O
182 H182	5.1292	-2.0052	-5.5391 H
183 C183	5.3112	-0.9134	-5.5997 C
184 C184	5.3551	-0.3526	-7.0069 C
185 C185	5.5321	1.1712	-7.0193 C
186 H186	4.6665	1.6645	-6.5631 H
187 H187	5.6360	1.5383	-8.0460 H
188 H188	6.4164	1.4705	-6.4492 H
189 C189	4.1036	-0.8176	-7.7903 C
190 H190	6.2327	-0.8248	-7.4844 H
191 H191	3.9883	-1.9077	-7.7583 H
192 H192	4.1805	-0.5168	-8.8402 H
193 H193	3.1957	-0.3659	-7.3736 H
194 O194	-0.5796	-3.4858	-2.0968 O
195 H195	-1.8701	-4.2258	-0.7123 H
196 C196	-1.3228	-4.3741	-1.6648 C
197 C197	-1.5710	-5.7077	-2.3405 C
198 C198	-0.8475	-5.8189	-3.6888 C
199 H199	-1.2397	-5.0832	-4.3997 H
200 H200	-0.9829	-6.8179	-4.1171 H
201 H201	0.2240	-5.6275	-3.5786 H
202 C202	-3.0946	-5.9560	-2.4552 C
203 H203	-1.1680	-6.4681	-1.6474 H
204 H204	-3.5944	-5.8592	-1.4838 H
205 H205	-3.2865	-6.9649	-2.8346 H
206 H206	-3.5528	-5.2402	-3.1476 H
207 O207	-2.1322	4.1101	3.5315 O
208 H208	-0.7430	3.1927	2.3660 H
209 C209	-1.5255	3.1044	3.1462 C
210 C210	-1.7568	1.6973	3.6593 C
211 C211	-2.7939	1.6544	4.7890 C
212 H212	-2.4322	2.2017	5.6666 H
213 H213	-2.9957	0.6201	5.0872 H
214 H214	-3.7344	2.1193	4.4790 H
215 C215	-0.4037	1.0629	4.0629 C
216 H216	-2.1385	1.1273	2.7930 H
217 H217	0.3271	1.1154	3.2468 H
218 H218	-0.5425	0.0090	4.3247 H
219 H219	0.0203	1.5760	4.9341 H
220 O220	-0.3335	5.5717	-4.2358 O
221 H221	-1.6909	4.3381	-5.1108 H
222 C222	-0.9411	4.4978	-4.3102 C
223 C223	-0.7529	3.3233	-3.3710 C
224 C224	0.3506	3.5784	-2.3362 C
225 H225	1.3241	3.6848	-2.8277 H
226 H226	0.4123	2.7467	-1.6263 H
227 H227	0.1636	4.5011	-1.7792 H
228 C228	-0.5173	2.0334	-4.1936 C
229 H229	-1.7203	3.2056	-2.8499 H
230 H230	-1.3096	1.8764	-4.9355 H
231 H231	-0.4962	1.1610	-3.5324 H
232 H232	0.4414	2.0811	-4.7230 H
233 O233	4.5477	5.9857	1.5048 O
234 H234	2.9932	6.4506	0.2811 H
235 C235	3.5511	5.6747	0.8428 C
236 C236	2.9910	4.2721	0.7178 C
237 C237	3.8508	3.2359	1.4531 C
238 H238	4.8455	3.1668	0.9988 H
239 H239	3.3828	2.2466	1.4094 H
240 H240	3.9896	3.5116	2.5026 H
241 C241	2.7836	3.9273	-0.7770 C
242 H242	1.9904	4.3122	1.1850 H
243 H243	2.1779	4.6863	-1.2869 H
244 H244	2.2720	2.9645	-0.8762 H
245 H245	3.7469	3.8548	-1.2952 H
246 O246	-2.7180	-1.0130	-6.6338 O
247 H247	-2.3357	0.9607	-6.3358 H
248 C248	-2.2701	-0.0795	-5.9583 C
249 C249	-1.6097	-0.2240	-4.6019 C
250 C250	-1.6201	-1.6746	-4.1026 C
251 H251	-2.6470	-2.0188	-3.9367 H
252 H252	-1.0713	-1.7607	-3.1587 H
253 H253	-1.1646	-2.3473	-4.8352 H
254 C254	-2.2611	0.7599	-3.6000 C
255 H255	-0.5644	0.1034	-4.7474 H
256 H256	-2.2552	1.7883	-3.9811 H
257 H257	-1.7170	0.7487	-2.6500 H
258 H258	-3.3008	0.4764	-3.3989 H
@<TRIPOS>BOND
1 1 2 2
2 1 3 1
3 1 16 1
4 3 4 1
5 5 9 1
6 5 15 1
7 5 16 1
8 6 7 1
9 6 8 1
10 6 9 2
11 9 10 1
12 10 11 1
13 10 12 1
14 10 13 1
15 14 15 1
16 14 17 1
17 14 18 1
18 14 19 1
19 15 20 1
20 15 21 1
21 16 17 1
22 16 22 1
23 17 23 1
24 17 24 1
25 25 27 2
26 26 27 1
27 27 28 1
28 28 29 1
29 28 33 1
30 28 34 1
31 29 30 1
32 29 31 1
33 29 32 1
34 33 35 1
35 33 36 1
36 33 37 1
37 38 40 2
38 39 40 1
39 40 41 1
40 41 42 1
41 41 46 1
42 41 47 1
43 42 43 1
44 42 44 1
45 42 45 1
46 46 48 1
47 46 49 1
48 46 50 1
49 51 53 2
50 52 53 1
51 53 54 1
52 54 55 1
53 54 59 1
54 54 60 1
55 55 56 1
56 55 57 1
57 55 58 1
58 59 61 1
59 59 62 1
60 59 63 1
61 64 66 2
62 65 66 1
63 66 67 1
64 67 68 1
65 67 72 1
66 67 73 1
67 68 69 1
68 68 70 1
69 68 71 1
70 72 74 1
71 72 75 1
72 72 76 1
73 77 79 2
74 78 79 1
75 79 80 1
76 80 81 1
77 80 85 1
78 80 86 1
79 81 82 1
80 81 83 1
81 81 84 1
82 85 87 1
83 85 88 1
84 85 89 1
85 90 92 2
86 91 92 1
87 92 93 1
88 93 94 1
89 93 98 1
90 93 99 1
91 94 95 1
92 94 96 1
93 94 97 1
94 98 100 1
95 98 101 1
96 98 102 1
97 103 105 2
98 104 105 1
99 105 106 1
100 106 107 1
101 106 111 1
102 106 112 1
103 107 108 1
104 107 109 1
105 107 110 1
106 111 113 1
107 111 114 1
108 111 115 1
109 116 118 2
110 117 118 1
111 118 119 1
112 119 120 1
113 119 124 1
114 119 125 1
115 120 121 1
116 120 122 1
117 120 123 1
118 124 126 1
119 124 127 1
120 124 128 1
121 129 131 2
122 130 131 1
123 131 132 1
124 132 133 1
125 132 137 1
126 132 138 1
127 133 134 1
128 133 135 1
129 133 136 1
130 137 139 1
131 137 140 1
132 137 141 1
133 142 144 2
134 143 144 1
135 144 145 1
136 145 146 1
137 145 150 1
138 145 151 1
139 146 147 1
140 146 148 1
141 146 149 1
142 150 152 1
143 150 153 1
144 150 154 1
145 155 157 2
146 156 157 1
147 157 158 1
148 158 159 1
149 158 163 1
150 158 164 1
151 159 160 1
152 159 161 1
153 159 162 1
154 163 165 1
155 163 166 1
156 163 167 1
157 168 170 2
158 169 170 1
159 170 171 1
160 171 172 1
161 171 176 1
162 171 177 1
163 172 173 1
164 172 174 1
165 172 175 1
166 176 178 1
167 176 179 1
168 176 180 1
169 181 183 2
170 182 183 1
171 183 184 1
172 184 185 1
173 184 189 1
174 184 190 1
175 185 186 1
176 185 187 1
177 185 188 1
178 189 191 1
179 189 192 1
180 189 193 1
181 194 196 2
182 195 196 1
183 196 197 1
184 197 198 1
185 197 202 1
186 197 203 1
187 198 199 1
188 198 200 1
189 198 201 1
190 202 204 1
191 202 205 1
192 202 206 1
193 207 209 2
194 208 209 1
195 209 210 1
196 210 211 1
197 210 215 1
198 210 216 1
199 211 212 1
200 211 213 1
201 211 214 1
202 215 217 1
203 215 218 1
204 215 219 1
205 220 222 2
206 221 222 1
207 222 223 1
208 223 224 1
209 223 228 1
210 223 229 1
211 224 225 1
212 224 226 1
213 224 227 1
214 228 230 1
215 228 231 1
216 228 232 1
217 233 235 2
218 234 235 1
219 235 236 1
220 236 237 1
221 236 241 1
222 236 242 1
223 237 238 1
224 237 239 1
225 237 240 1
226 241 243 1
227 241 244 1
228 241 245 1
229 246 248 2
230 247 248 1
231 248 249 1
232 249 250 1
233 249 254 1
234 249 255 1
235 250 251 1
236 250 252 1
237 250 253 1
238 254 256 1
239 254 257 1
240 254 258 1
