@<TRIPOS>MOLECULE
Molecule Name
362 336
SMALL
NO_CHARGES

@<TRIPOS>ATOM
1 C1	0.0000	0.0000	0.0000 C
2 O2	-1.2337	0.0000	0.0000 O
3 O3	0.7329	1.1684	0.0000 O
4 H4	0.1296	1.9426	-0.0428 H
5 N5	2.0361	-1.2121	-0.8085 N
6 C6	0.7195	-1.4272	-2.8303 C
7 H7	-0.2356	-1.4022	-2.3211 H
8 H8	0.6887	-1.5308	-3.9073 H
9 C9	1.9122	-1.3268	-2.1957 C
10 C10	3.2134	-1.3358	-2.9678 C
11 H11	3.8815	-2.1382	-2.6304 H
12 H12	3.0164	-1.4844	-4.0314 H
13 H13	3.7569	-0.3891	-2.8552 H
14 C14	2.8720	-0.7560	1.3691 C
15 C15	3.3097	-1.0439	-0.0810 C
16 C16	0.8734	-1.2499	0.0687 C
17 C17	1.4909	-1.4348	1.4825 C
18 H18	3.5879	-1.1421	2.1009 H
19 H19	2.7718	0.3226	1.5214 H
20 H20	3.9223	-1.9567	-0.1375 H
21 H21	3.9016	-0.2186	-0.4917 H
22 H22	0.2101	-2.0829	-0.1917 H
23 H23	0.8667	-1.0118	2.2749 H
24 H24	1.5987	-2.5080	1.6771 H
25 O25	-1.6145	3.0103	1.0065 O
26 H26	-2.8356	3.5964	-0.5087 H
27 C27	-2.7307	3.1200	0.4867 C
28 C28	-4.0303	2.6451	1.1051 C
29 C29	-3.8086	1.9274	2.4428 C
30 H30	-3.2316	1.0074	2.2967 H
31 H31	-4.7675	1.6632	2.9014 H
32 H32	-3.2484	2.5569	3.1403 H
33 C33	-4.8067	1.7808	0.0821 C
34 H34	-4.6257	3.5600	1.2773 H
35 H35	-4.9431	2.3066	-0.8706 H
36 H36	-5.7975	1.5289	0.4737 H
37 H37	-4.2729	0.8445	-0.1182 H
38 O38	0.3305	4.2250	-0.2176 O
39 H39	0.6217	4.6951	1.7380 H
40 C40	0.4229	5.0431	0.7044 C
41 C41	0.2850	6.5448	0.5540 C
42 C42	0.0890	6.9662	-0.9081 C
43 H43	0.9750	6.7193	-1.5036 H
44 H44	-0.0830	8.0457	-0.9778 H
45 H45	-0.7620	6.4463	-1.3580 H
46 C46	1.4911	7.2467	1.2239 C
47 H47	-0.6147	6.8172	1.1350 H
48 H48	1.6216	6.9223	2.2634 H
49 H49	1.3455	8.3317	1.2245 H
50 H50	2.4175	7.0289	0.6796 H
51 O51	-1.5215	2.5114	-2.1978 O
52 H52	-3.2295	2.1987	-3.2538 H
53 C53	-2.7515	2.4174	-2.2779 C
54 C54	-3.7150	2.5792	-1.1193 C
55 C55	-2.9883	2.8024	0.2133 C
56 H56	-2.3945	1.9216	0.4819 H
57 H57	-3.7078	2.9909	1.0172 H
58 H58	-2.3022	3.6521	0.1511 H
59 C59	-4.6852	1.3737	-1.0789 C
60 H60	-4.3168	3.4742	-1.3600 H
61 H61	-5.1842	1.2236	-2.0439 H
62 H62	-5.4582	1.5349	-0.3205 H
63 H63	-4.1481	0.4523	-0.8254 H
64 O64	-0.3700	2.5205	-2.2083 O
65 H65	-0.1945	2.9152	-4.1942 H
66 C66	-0.8190	2.9456	-3.2788 C
67 C67	-2.2034	3.5312	-3.4718 C
68 C68	-3.0423	3.4733	-2.1887 C
69 H69	-3.2312	2.4342	-1.8970 H
70 H70	-4.0071	3.9702	-2.3369 H
71 H71	-2.5236	3.9570	-1.3559 H
72 C72	-2.8957	2.8422	-4.6727 C
73 H73	-2.0394	4.5874	-3.7521 H
74 H74	-2.2745	2.8832	-5.5757 H
75 H75	-3.8476	3.3351	-4.8950 H
76 H76	-3.1029	1.7893	-4.4486 H
77 O77	-2.1914	2.3440	0.7530 O
78 H78	-3.2792	0.6297	0.8419 H
79 C79	-3.2396	1.7290	0.9790 C
80 C80	-4.5362	2.3591	1.4466 C
81 C81	-4.3938	3.8669	1.6911 C
82 H82	-3.6928	4.0611	2.5105 H
83 H83	-5.3615	4.3073	1.9542 H
84 H84	-4.0073	4.3759	0.8032 H
85 C85	-5.0659	1.5979	2.6860 C
86 H86	-5.2578	2.1898	0.6270 H
87 H87	-5.1480	0.5211	2.4948 H
88 H88	-6.0583	1.9683	2.9625 H
89 H89	-4.3987	1.7423	3.5438 H
90 O90	-1.8995	2.0082	-2.2361 O
91 H91	-1.5940	0.2372	-3.1851 H
92 C92	-2.2528	1.1114	-3.0101 C
93 C93	-3.5586	1.0883	-3.7789 C
94 C94	-4.4564	2.2836	-3.4344 C
95 H95	-4.7653	2.2448	-2.3838 H
96 H96	-5.3566	2.2814	-4.0583 H
97 H97	-3.9285	3.2299	-3.5847 H
98 C98	-4.2636	-0.2730	-3.5639 C
99 H99	-3.2732	1.1429	-4.8451 H
100 H100	-3.6012	-1.1137	-3.8032 H
101 H101	-5.1481	-0.3469	-4.2049 H
102 H102	-4.5891	-0.3806	-2.5226 H
103 O103	-5.8191	-1.9577	1.7131 O
104 H104	-5.4277	-1.6414	-0.2559 H
105 C105	-5.2854	-1.3230	0.7963 C
106 C106	-4.4155	-0.0953	0.9777 C
107 C107	-4.3220	0.3381	2.4464 C
108 H108	-5.3035	0.6497	2.8207 H
109 H109	-3.6288	1.1789	2.5562 H
110 H110	-3.9774	-0.4848	3.0795 H
111 C111	-4.9160	1.0374	0.0488 C
112 H112	-3.4123	-0.3904	0.6207 H
113 H113	-4.9880	0.7036	-0.9934 H
114 H114	-4.2277	1.8881	0.0841 H
115 H115	-5.9056	1.3882	0.3640 H
116 O116	-6.5250	2.5433	2.2802 O
117 H117	-6.7014	1.8496	0.3782 H
118 C118	-6.0730	1.9683	1.2836 C
119 C119	-4.6797	1.3826	1.1726 C
120 C120	-3.8368	1.6477	2.4268 C
121 H121	-3.6644	2.7219	2.5566 H
122 H122	-2.8644	1.1497	2.3494 H
123 H123	-4.3441	1.2874	3.3265 H
124 C124	-4.0038	1.8929	-0.1232 C
125 H125	-4.8268	0.2936	1.0565 H
126 H126	-4.6276	1.7056	-1.0055 H
127 H127	-3.0445	1.3874	-0.2744 H
128 H128	-3.8135	2.9708	-0.0623 H
129 O129	-0.4587	-4.1776	0.4725 O
130 H130	-1.8190	-3.8187	-0.9941 H
131 C131	-1.6157	-4.1702	0.0373 C
132 C132	-2.8405	-4.6153	0.8111 C
133 C133	-2.4832	-5.1617	2.1994 C
134 H134	-1.8781	-6.0711	2.1128 H
135 H135	-3.3906	-5.4042	2.7628 H
136 H136	-1.8996	-4.4345	2.7716 H
137 C137	-3.6538	-5.6217	-0.0385 C
138 H138	-3.4615	-3.7085	0.9256 H
139 H139	-3.8875	-5.2172	-1.0308 H
140 H140	-4.5988	-5.8611	0.4597 H
141 H141	-3.0953	-6.5553	-0.1734 H
142 O142	3.7047	-3.9728	-1.2167 O
143 H143	2.3371	-4.1242	-2.7122 H
144 C144	2.7560	-4.5374	-1.7728 C
145 C145	2.0780	-5.7975	-1.2736 C
146 C146	2.7527	-6.3606	-0.0161 C
147 H147	3.7774	-6.6795	-0.2372 H
148 H148	2.1976	-7.2248	0.3643 H
149 H149	2.8089	-5.6054	0.7734 H
150 C150	1.9929	-6.8312	-2.4226 C
151 H151	1.0433	-5.4971	-1.0280 H
152 H152	1.5196	-6.4053	-3.3156 H
153 H153	1.4030	-7.6986	-2.1089 H
154 H154	2.9928	-7.1838	-2.7015 H
155 O155	1.6397	-4.8064	1.7393 O
156 H156	-0.3724	-4.5820	1.9163 H
157 C157	0.5135	-5.2426	2.0032 C
158 C158	0.2107	-6.6572	2.4548 C
159 C159	1.4654	-7.5397	2.4800 C
160 H160	1.8709	-7.6638	1.4697 H
161 H161	1.2305	-8.5314	2.8810 H
162 H162	2.2514	-7.0907	3.0943 H
163 C163	-0.9218	-7.2497	1.5816 C
164 H164	-0.1862	-6.5596	3.4814 H
165 H165	-1.8039	-6.5981	1.5665 H
166 H166	-1.2295	-8.2255	1.9712 H
167 H167	-0.5823	-7.3885	0.5485 H
168 O168	-1.5806	-0.2740	3.4470 O
169 H169	-1.0156	-2.1548	2.9240 H
170 C170	-1.8186	-1.3925	2.9775 C
171 C171	-3.1627	-1.8453	2.4433 C
172 C172	-4.2471	-0.7741	2.6169 C
173 H173	-4.4340	-0.5820	3.6793 H
174 H174	-5.1859	-1.0984	2.1553 H
175 H175	-3.9424	0.1732	2.1625 H
176 C176	-3.5481	-3.1990	3.0876 C
177 H177	-3.0035	-2.0307	1.3656 H
178 H178	-2.7550	-3.9462	2.9638 H
179 H179	-4.4586	-3.5931	2.6248 H
180 H180	-3.7380	-3.0774	4.1604 H
181 O181	4.8579	1.5608	-2.3451 O
182 H182	4.2605	3.2961	-3.2181 H
183 C183	5.0729	2.5649	-3.0334 C
184 C184	6.3995	2.9108	-3.6795 C
185 C185	7.4994	1.9026	-3.3225 C
186 H186	7.7123	1.9272	-2.2480 H
187 H187	8.4239	2.1345	-3.8621 H
188 H188	7.1951	0.8819	-3.5718 H
189 C189	6.7842	4.3681	-3.3270 C
190 H190	6.2140	2.8768	-4.7683 H
191 H191	5.9802	5.0707	-3.5777 H
192 H192	7.6797	4.6681	-3.8809 H
193 H193	6.9995	4.4639	-2.2563 H
194 O194	-1.4190	3.7606	1.9480 O
195 H195	-1.6599	1.8199	1.3949 H
196 C196	-1.6317	2.5712	2.2095 C
197 C197	-1.8685	2.0133	3.5985 C
198 C198	-1.7397	3.0881	4.6856 C
199 H199	-0.7159	3.4765	4.7257 H
200 H200	-1.9895	2.6736	5.6682 H
201 H201	-2.4024	3.9347	4.4839 H
202 C202	-0.9337	0.8029	3.8380 C
203 H203	-2.9042	1.6283	3.5882 H
204 H204	-1.0315	0.0529	3.0438 H
205 H205	-1.1758	0.3199	4.7902 H
206 H206	0.1138	1.1240	3.8770 H
207 O207	-6.1895	-0.8191	1.1096 O
208 H208	-4.4521	-0.0235	0.4176 H
209 C209	-4.9553	-0.7556	1.0807 C
210 C210	-4.0188	-1.6202	1.9007 C
211 C211	-4.7760	-2.5556	2.8521 C
212 H212	-5.3303	-1.9790	3.6010 H
213 H213	-4.0791	-3.2192	3.3750 H
214 H214	-5.5017	-3.1679	2.3088 H
215 C215	-2.9917	-0.7230	2.6330 C
216 H216	-3.4577	-2.2251	1.1656 H
217 H217	-2.4711	-0.0535	1.9377 H
218 H218	-2.2393	-1.3402	3.1346 H
219 H219	-3.4872	-0.1075	3.3930 H
220 O220	-5.7150	0.8229	-2.6347 O
221 H221	-4.0504	1.6298	-3.4762 H
222 C222	-4.5624	1.2639	-2.5636 C
223 C223	-3.7423	1.3582	-1.2927 C
224 C224	-4.5332	0.9099	-0.0569 C
225 H225	-5.3812	1.5800	0.1232 H
226 H226	-3.8940	0.9167	0.8325 H
227 H227	-4.9363	-0.0982	-0.1906 H
228 C228	-3.1675	2.7884	-1.1506 C
229 H229	-2.8861	0.6762	-1.4439 H
230 H230	-2.6174	3.0943	-2.0488 H
231 H231	-2.4797	2.8376	-0.3003 H
232 H232	-3.9714	3.5139	-0.9792 H
233 O233	4.4501	-4.0852	-1.2029 O
234 H234	4.5846	-6.1130	-1.2154 H
235 C235	4.8102	-5.1567	-0.7023 C
236 C236	5.5647	-5.2980	0.6044 C
237 C237	5.9130	-3.9382	1.2236 C
238 H238	6.6024	-3.3842	0.5768 H
239 H239	6.3894	-4.0710	2.2009 H
240 H240	5.0183	-3.3218	1.3511 H
241 C241	6.8073	-6.1963	0.3918 C
242 H242	4.8812	-5.8418	1.2814 H
243 H243	6.5386	-7.1573	-0.0632 H
244 H244	7.2951	-6.4011	1.3503 H
245 H245	7.5360	-5.7015	-0.2609 H
246 O246	-5.7588	-3.3321	-2.0089 O
247 H247	-5.1434	-3.6079	-0.0918 H
248 C248	-4.8778	-3.3773	-1.1430 C
249 C249	-3.4016	-3.1374	-1.3885 C
250 C250	-3.0907	-2.9009	-2.8721 C
251 H251	-3.3165	-3.7964	-3.4617 H
252 H252	-2.0320	-2.6563	-3.0092 H
253 H253	-3.6943	-2.0830	-3.2763 H
254 C254	-2.5788	-4.2994	-0.7810 C
255 H255	-3.1522	-2.2266	-0.8147 H
256 H256	-2.8252	-4.4603	0.2755 H
257 H257	-1.5081	-4.0813	-0.8487 H
258 H258	-2.7697	-5.2336	-1.3220 H
259 O259	5.9556	-3.0931	-2.9036 O
260 H260	5.6043	-5.0702	-2.5912 H
261 C261	6.3310	-4.2687	-2.8325 C
262 C262	7.7530	-4.7442	-3.0532 C
263 C263	8.6913	-3.6003	-3.4588 C
264 H264	8.3964	-3.1839	-4.4285 H
265 H265	9.7233	-3.9584	-3.5374 H
266 H266	8.6580	-2.7852	-2.7299 H
267 C267	7.7580	-5.9127	-4.0684 C
268 H268	8.0797	-5.1555	-2.0810 H
269 H269	7.0718	-6.7134	-3.7669 H
270 H270	8.7624	-6.3410	-4.1481 H
271 H271	7.4582	-5.5630	-5.0632 H
272 O272	-4.7193	4.0594	0.6138 O
273 H273	-5.3539	4.9708	-1.0882 H
274 C274	-4.5425	4.4431	-0.5479 C
275 C275	-3.2663	4.2543	-1.3432 C
276 C276	-2.1595	3.5886	-0.5154 C
277 H277	-1.8603	4.2329	0.3189 H
278 H278	-1.2774	3.3967	-1.1357 H
279 H279	-2.5011	2.6406	-0.0895 H
280 C280	-2.8284	5.6088	-1.9512 C
281 H281	-3.5395	3.5923	-2.1848 H
282 H282	-3.6372	6.0738	-2.5277 H
283 H283	-1.9752	5.4648	-2.6220 H
284 H284	-2.5258	6.3077	-1.1627 H
285 O285	-5.6783	-3.7268	1.7105 O
286 H286	-4.3578	-3.9579	3.2379 H
287 C287	-4.5970	-3.4913	2.2613 C
288 C288	-3.5159	-2.5852	1.7070 C
289 C289	-3.8747	-2.0339	0.3210 C
290 H290	-3.9434	-2.8455	-0.4118 H
291 H291	-3.1127	-1.3252	-0.0204 H
292 H292	-4.8434	-1.5257	0.3371 H
293 C293	-2.1575	-3.3273	1.7241 C
294 H294	-3.4387	-1.7473	2.4232 H
295 H295	-1.9261	-3.7245	2.7198 H
296 H296	-1.3502	-2.6462	1.4362 H
297 H297	-2.1643	-4.1642	1.0160 H
298 O298	1.7777	4.1198	-6.4098 O
299 H299	0.9253	2.8713	-7.7681 H
300 C300	1.2442	3.0491	-6.7215 C
301 C301	0.9707	1.9023	-5.7693 C
302 C302	1.5043	2.1796	-4.3579 C
303 H303	2.5968	2.2630	-4.3673 H
304 H304	1.2266	1.3694	-3.6753 H
305 H305	1.1084	3.1204	-3.9641 H
306 C306	1.5204	0.5860	-6.3704 C
307 H307	-0.1297	1.8083	-5.7304 H
308 H308	1.1375	0.4131	-7.3835 H
309 H309	1.2272	-0.2660	-5.7486 H
310 H310	2.6154	0.6098	-6.4189 H
311 O311	-5.8963	-3.4549	-2.8017 O
312 H312	-5.1066	-2.9325	-4.6000 H
313 C313	-4.9751	-3.0214	-3.5029 C
314 C314	-3.6207	-2.5790	-2.9863 C
315 C315	-3.5302	-2.6535	-1.4567 C
316 H316	-4.2337	-1.9527	-0.9934 H
317 H317	-2.5196	-2.4012	-1.1181 H
318 H318	-3.7809	-3.6549	-1.0948 H
319 C319	-3.2887	-1.1718	-3.5391 C
320 H320	-2.8929	-3.2831	-3.4287 H
321 H321	-3.3718	-1.1366	-4.6321 H
322 H322	-2.2658	-0.8903	-3.2689 H
323 H323	-3.9690	-0.4207	-3.1207 H
324 O324	-2.9727	0.2935	-7.3386 O
325 H325	-1.2556	1.3397	-7.0434 H
326 C326	-1.9939	0.6107	-6.6533 C
327 C327	-1.6901	0.0763	-5.2681 C
328 C328	-2.7873	-0.8657	-4.7557 C
329 H329	-3.7328	-0.3262	-4.6314 H
330 H330	-2.5056	-1.2943	-3.7880 H
331 H331	-2.9675	-1.6822	-5.4612 H
332 C332	-1.4152	1.2567	-4.3051 C
333 H333	-0.7453	-0.4874	-5.3710 H
334 H334	-0.6378	1.9245	-4.6955 H
335 H335	-1.0810	0.8819	-3.3322 H
336 H336	-2.3249	1.8476	-4.1469 H
337 O337	-1.6034	-7.1693	-3.0728 O
338 H338	0.4167	-7.3912	-3.0892 H
339 C339	-0.4568	-6.7092	-3.1164 C
340 C340	-0.1118	-5.2363	-3.2077 C
341 C341	-1.3613	-4.3532	-3.3199 C
342 H342	-1.8977	-4.5593	-4.2529 H
343 H343	-1.0858	-3.2933	-3.3080 H
344 H344	-2.0548	-4.5441	-2.4956 H
345 C345	0.8896	-5.0086	-4.3659 C
346 H346	0.4180	-4.9995	-2.2673 H
347 H347	1.7686	-5.6579	-4.2741 H
348 H348	1.2358	-3.9700	-4.3686 H
349 H349	0.4155	-5.2107	-5.3335 H
350 O350	6.1016	4.2121	-4.3563 O
351 H351	6.0784	4.0495	-2.3307 H
352 C352	5.7217	3.6734	-3.3105 C
353 C353	4.7722	2.4947	-3.2326 C
354 C354	4.2559	2.0728	-4.6142 C
355 H355	3.6532	2.8710	-5.0619 H
356 H356	3.6338	1.1749	-4.5349 H
357 H357	5.0838	1.8659	-5.2987 H
358 C358	3.6304	2.8130	-2.2370 C
359 H359	5.3636	1.6690	-2.7973 H
360 H360	4.0203	3.1247	-1.2605 H
361 H361	3.0040	1.9283	-2.0837 H
362 H362	2.9931	3.6174	-2.6226 H
@<TRIPOS>BOND
1 1 2 2
2 1 3 1
3 1 16 1
4 3 4 1
5 5 9 1
6 5 15 1
7 5 16 1
8 6 7 1
9 6 8 1
10 6 9 2
11 9 10 1
12 10 11 1
13 10 12 1
14 10 13 1
15 14 15 1
16 14 17 1
17 14 18 1
18 14 19 1
19 15 20 1
20 15 21 1
21 16 17 1
22 16 22 1
23 17 23 1
24 17 24 1
25 25 27 2
26 26 27 1
27 27 28 1
28 28 29 1
29 28 33 1
30 28 34 1
31 29 30 1
32 29 31 1
33 29 32 1
34 33 35 1
35 33 36 1
36 33 37 1
37 38 40 2
38 39 40 1
39 40 41 1
40 41 42 1
41 41 46 1
42 41 47 1
43 42 43 1
44 42 44 1
45 42 45 1
46 46 48 1
47 46 49 1
48 46 50 1
49 51 53 2
50 52 53 1
51 53 54 1
52 54 55 1
53 54 59 1
54 54 60 1
55 55 56 1
56 55 57 1
57 55 58 1
58 59 61 1
59 59 62 1
60 59 63 1
61 64 66 2
62 65 66 1
63 66 67 1
64 67 68 1
65 67 72 1
66 67 73 1
67 68 69 1
68 68 70 1
69 68 71 1
70 72 74 1
71 72 75 1
72 72 76 1
73 77 79 2
74 78 79 1
75 79 80 1
76 80 81 1
77 80 85 1
78 80 86 1
79 81 82 1
80 81 83 1
81 81 84 1
82 85 87 1
83 85 88 1
84 85 89 1
85 90 92 2
86 91 92 1
87 92 93 1
88 93 94 1
89 93 98 1
90 93 99 1
91 94 95 1
92 94 96 1
93 94 97 1
94 98 100 1
95 98 101 1
96 98 102 1
97 103 105 2
98 104 105 1
99 105 106 1
100 106 107 1
101 106 111 1
102 106 112 1
103 107 108 1
104 107 109 1
105 107 110 1
106 111 113 1
107 111 114 1
108 111 115 1
109 116 118 2
110 117 118 1
111 118 119 1
112 119 120 1
113 119 124 1
114 119 125 1
115 120 121 1
116 120 122 1
117 120 123 1
118 124 126 1
119 124 127 1
120 124 128 1
121 129 131 2
122 130 131 1
123 131 132 1
124 132 133 1
125 132 137 1
126 132 138 1
127 133 134 1
128 133 135 1
129 133 136 1
130 137 139 1
131 137 140 1
132 137 141 1
133 142 144 2
134 143 144 1
135 144 145 1
136 145 146 1
137 145 150 1
138 145 151 1
139 146 147 1
140 146 148 1
141 146 149 1
142 150 152 1
143 150 153 1
144 150 154 1
145 155 157 2
146 156 157 1
147 157 158 1
148 158 159 1
149 158 163 1
150 158 164 1
151 159 160 1
152 159 161 1
153 159 162 1
154 163 165 1
155 163 166 1
156 163 167 1
157 168 170 2
158 169 170 1
159 170 171 1
160 171 172 1
161 171 176 1
162 171 177 1
163 172 173 1
164 172 174 1
165 172 175 1
166 176 178 1
167 176 179 1
168 176 180 1
169 181 183 2
170 182 183 1
171 183 184 1
172 184 185 1
173 184 189 1
174 184 190 1
175 185 186 1
176 185 187 1
177 185 188 1
178 189 191 1
179 189 192 1
180 189 193 1
181 194 196 2
182 195 196 1
183 196 197 1
184 197 198 1
185 197 202 1
186 197 203 1
187 198 199 1
188 198 200 1
189 198 201 1
190 202 204 1
191 202 205 1
192 202 206 1
193 207 209 2
194 208 209 1
195 209 210 1
196 210 211 1
197 210 215 1
198 210 216 1
199 211 212 1
200 211 213 1
201 211 214 1
202 215 217 1
203 215 218 1
204 215 219 1
205 220 222 2
206 221 222 1
207 222 223 1
208 223 224 1
209 223 228 1
210 223 229 1
211 224 225 1
212 224 226 1
213 224 227 1
214 228 230 1
215 228 231 1
216 228 232 1
217 233 235 2
218 234 235 1
219 235 236 1
220 236 237 1
221 236 241 1
222 236 242 1
223 237 238 1
224 237 239 1
225 237 240 1
226 241 243 1
227 241 244 1
228 241 245 1
229 246 248 2
230 247 248 1
231 248 249 1
232 249 250 1
233 249 254 1
234 249 255 1
235 250 251 1
236 250 252 1
237 250 253 1
238 254 256 1
239 254 257 1
240 254 258 1
241 259 261 2
242 260 261 1
243 261 262 1
244 262 263 1
245 262 267 1
246 262 268 1
247 263 264 1
248 263 265 1
249 263 266 1
250 267 269 1
251 267 270 1
252 267 271 1
253 272 274 2
254 273 274 1
255 274 275 1
256 275 276 1
257 275 280 1
258 275 281 1
259 276 277 1
260 276 278 1
261 276 279 1
262 280 282 1
263 280 283 1
264 280 284 1
265 285 287 2
266 286 287 1
267 287 288 1
268 288 289 1
269 288 293 1
270 288 294 1
271 289 290 1
272 289 291 1
273 289 292 1
274 293 295 1
275 293 296 1
276 293 297 1
277 298 300 2
278 299 300 1
279 300 301 1
280 301 302 1
281 301 306 1
282 301 307 1
283 302 303 1
284 302 304 1
285 302 305 1
286 306 308 1
287 306 309 1
288 306 310 1
289 311 313 2
290 312 313 1
291 313 314 1
292 314 315 1
293 314 319 1
294 314 320 1
295 315 316 1
296 315 317 1
297 315 318 1
298 319 321 1
299 319 322 1
300 319 323 1
301 324 326 2
302 325 326 1
303 326 327 1
304 327 328 1
305 327 332 1
306 327 333 1
307 328 329 1
308 328 330 1
309 328 331 1
310 332 334 1
311 332 335 1
312 332 336 1
313 337 339 2
314 338 339 1
315 339 340 1
316 340 341 1
317 340 345 1
318 340 346 1
319 341 342 1
320 341 343 1
321 341 344 1
322 345 347 1
323 345 348 1
324 345 349 1
325 350 352 2
326 351 352 1
327 352 353 1
328 353 354 1
329 353 358 1
330 353 359 1
331 354 355 1
332 354 356 1
333 354 357 1
334 358 360 1
335 358 361 1
336 358 362 1
