@<TRIPOS>MOLECULE
Molecule Name
128 120
SMALL
NO_CHARGES

@<TRIPOS>ATOM
1 C1	0.0000	0.0000	0.0000 C
2 O2	-1.2281	0.0000	0.0000 O
3 O3	0.7297	1.1614	0.0000 O
4 H4	1.6858	0.9286	-0.0953 H
5 N5	2.2198	-1.0761	-0.3871 N
6 C6	1.4702	-0.9736	-2.7013 C
7 H7	0.4189	-1.0543	-2.4558 H
8 H8	1.7074	-0.8412	-3.7493 H
9 C9	2.4612	-0.9972	-1.7855 C
10 C10	3.9133	-0.8607	-2.1874 C
11 H11	4.4788	-1.7871	-2.0251 H
12 H12	3.9863	-0.6133	-3.2485 H
13 H13	4.4140	-0.0690	-1.6161 H
14 C14	2.3608	-2.4576	1.5708 C
15 C15	3.2171	-1.6819	0.5504 C
16 C16	0.8395	-1.2761	0.1022 C
17 C17	1.0243	-1.6926	1.5851 C
18 H18	2.2018	-3.4852	1.2229 H
19 H19	2.8309	-2.5059	2.5574 H
20 H20	3.9084	-2.3410	0.0193 H
21 H21	3.8091	-0.8979	1.0392 H
22 H22	0.3188	-2.0631	-0.4593 H
23 H23	1.1011	-0.7985	2.2161 H
24 H24	0.1800	-2.2857	1.9425 H
25 O25	3.4203	2.0504	0.9076 O
26 H26	1.8456	1.8826	2.1813 H
27 C27	2.8589	2.2860	1.9835 C
28 C28	3.4470	3.1104	3.1110 C
29 C29	4.8777	3.5732	2.8068 C
30 H30	5.5527	2.7139	2.7253 H
31 H31	5.2481	4.2276	3.6031 H
32 H32	4.9237	4.1156	1.8579 H
33 C33	3.3409	2.3232	4.4396 C
34 H34	2.7903	3.9944	3.2025 H
35 H35	2.3137	1.9907	4.6318 H
36 H36	3.6548	2.9524	5.2788 H
37 H37	3.9878	1.4384	4.4185 H
38 O38	-1.8277	-4.0045	0.6240 O
39 H39	-2.1752	-2.0022	0.6097 H
40 C40	-2.4942	-3.0118	0.9379 C
41 C41	-3.7633	-3.0405	1.7657 C
42 C42	-4.1921	-4.4699	2.1215 C
43 H43	-4.4513	-5.0320	1.2174 H
44 H44	-5.0664	-4.4566	2.7811 H
45 H45	-3.3840	-5.0113	2.6221 H
46 C46	-4.8746	-2.2440	1.0399 C
47 H47	-3.5217	-2.4914	2.6937 H
48 H48	-4.5438	-1.2304	0.7831 H
49 H49	-5.7590	-2.1587	1.6797 H
50 H50	-5.1729	-2.7504	0.1145 H
51 O51	1.6118	-4.2456	-0.8636 O
52 H52	1.6448	-4.1313	-2.8924 H
53 C53	1.4551	-4.7401	-1.9857 C
54 C54	1.0086	-6.1629	-2.2563 C
55 C55	0.8385	-6.9735	-0.9649 C
56 H56	1.7997	-7.0892	-0.4518 H
57 H57	0.4438	-7.9710	-1.1858 H
58 H58	0.1565	-6.4727	-0.2715 H
59 C59	1.9804	-6.8300	-3.2596 C
60 H60	0.0298	-6.0729	-2.7611 H
61 H61	2.0980	-6.2289	-4.1694 H
62 H62	1.6048	-7.8158	-3.5524 H
63 H63	2.9707	-6.9643	-2.8089 H
64 O64	5.3723	1.0319	0.1606 O
65 H65	5.6678	1.8136	2.0131 H
66 C66	5.5506	1.9872	0.9246 C
67 C67	5.6285	3.4399	0.4997 C
68 C68	5.5372	3.6052	-1.0227 C
69 H69	6.3974	3.1376	-1.5145 H
70 H70	5.5200	4.6661	-1.2944 H
71 H71	4.6358	3.1279	-1.4181 H
72 C72	6.9004	4.0883	1.0982 C
73 H73	4.7588	3.9315	0.9720 H
74 H74	6.9530	3.9478	2.1847 H
75 H75	6.9080	5.1643	0.8961 H
76 H76	7.8030	3.6531	0.6537 H
77 O77	-2.9282	4.9145	-0.4419 O
78 H78	-3.0252	2.8874	-0.5494 H
79 C79	-2.4386	3.8130	-0.7162 C
80 C80	-1.0510	3.5934	-1.2846 C
81 C81	-0.3223	4.9142	-1.5641 C
82 H82	-0.8415	5.4847	-2.3423 H
83 H83	0.7022	4.7246	-1.9017 H
84 H84	-0.2856	5.5418	-0.6688 H
85 C85	-1.1394	2.6814	-2.5322 C
86 H86	-0.5008	3.0314	-0.5083 H
87 H87	-1.6746	1.7492	-2.3147 H
88 H88	-0.1356	2.4206	-2.8827 H
89 H89	-1.6620	3.1923	-3.3494 H
90 O90	-0.2863	-4.1859	-1.1040 O
91 H91	-1.4689	-3.9592	-2.7412 H
92 C92	-1.3652	-4.3097	-1.6947 C
93 C93	-2.6181	-4.9223	-1.1015 C
94 C94	-2.3871	-5.4566	0.3179 C
95 H95	-1.6665	-6.2819	0.3077 H
96 H96	-3.3250	-5.8236	0.7484 H
97 H97	-1.9827	-4.6782	0.9716 H
98 C98	-3.1756	-5.9986	-2.0642 C
99 H99	-3.3578	-4.1022	-1.0658 H
100 H100	-3.3211	-5.6003	-3.0757 H
101 H101	-4.1419	-6.3655	-1.7035 H
102 H102	-2.4911	-6.8525	-2.1290 H
103 O103	4.0506	-4.0173	-1.6654 O
104 H104	4.0753	-5.5170	-0.2942 H
105 C105	4.0218	-5.2146	-1.3593 C
106 C106	3.9155	-6.3630	-2.3424 C
107 C107	3.7671	-5.8763	-3.7898 C
108 H108	2.8274	-5.3278	-3.9186 H
109 H109	3.7688	-6.7242	-4.4831 H
110 H110	4.5810	-5.1985	-4.0636 H
111 C111	2.7731	-7.3134	-1.9091 C
112 H112	4.8621	-6.9243	-2.2425 H
113 H113	2.8907	-7.6391	-0.8684 H
114 H114	2.7617	-8.2058	-2.5430 H
115 H115	1.7999	-6.8176	-2.0035 H
116 O116	4.4809	-2.8407	4.1233 O
117 H117	3.7758	-2.9572	6.0258 H
118 C118	4.5846	-2.6377	5.3383 C
119 C119	5.7633	-1.9640	6.0118 C
120 C120	6.8793	-1.6172	5.0179 C
121 H121	7.3061	-2.5278	4.5829 H
122 H122	7.6824	-1.0654	5.5181 H
123 H123	6.4978	-1.0089	4.1926 H
124 C124	6.2587	-2.8392	7.1885 C
125 H125	5.3601	-1.0314	6.4463 H
126 H126	5.4439	-3.0865	7.8797 H
127 H127	7.0326	-2.3105	7.7542 H
128 H128	6.6894	-3.7773	6.8192 H
@<TRIPOS>BOND
1 1 2 2
2 1 3 1
3 1 16 1
4 3 4 1
5 5 9 1
6 5 15 1
7 5 16 1
8 6 7 1
9 6 8 1
10 6 9 2
11 9 10 1
12 10 11 1
13 10 12 1
14 10 13 1
15 14 15 1
16 14 17 1
17 14 18 1
18 14 19 1
19 15 20 1
20 15 21 1
21 16 17 1
22 16 22 1
23 17 23 1
24 17 24 1
25 25 27 2
26 26 27 1
27 27 28 1
28 28 29 1
29 28 33 1
30 28 34 1
31 29 30 1
32 29 31 1
33 29 32 1
34 33 35 1
35 33 36 1
36 33 37 1
37 38 40 2
38 39 40 1
39 40 41 1
40 41 42 1
41 41 46 1
42 41 47 1
43 42 43 1
44 42 44 1
45 42 45 1
46 46 48 1
47 46 49 1
48 46 50 1
49 51 53 2
50 52 53 1
51 53 54 1
52 54 55 1
53 54 59 1
54 54 60 1
55 55 56 1
56 55 57 1
57 55 58 1
58 59 61 1
59 59 62 1
60 59 63 1
61 64 66 2
62 65 66 1
63 66 67 1
64 67 68 1
65 67 72 1
66 67 73 1
67 68 69 1
68 68 70 1
69 68 71 1
70 72 74 1
71 72 75 1
72 72 76 1
73 77 79 2
74 78 79 1
75 79 80 1
76 80 81 1
77 80 85 1
78 80 86 1
79 81 82 1
80 81 83 1
81 81 84 1
82 85 87 1
83 85 88 1
84 85 89 1
85 90 92 2
86 91 92 1
87 92 93 1
88 93 94 1
89 93 98 1
90 93 99 1
91 94 95 1
92 94 96 1
93 94 97 1
94 98 100 1
95 98 101 1
96 98 102 1
97 103 105 2
98 104 105 1
99 105 106 1
100 106 107 1
101 106 111 1
102 106 112 1
103 107 108 1
104 107 109 1
105 107 110 1
106 111 113 1
107 111 114 1
108 111 115 1
109 116 118 2
110 117 118 1
111 118 119 1
112 119 120 1
113 119 124 1
114 119 125 1
115 120 121 1
116 120 122 1
117 120 123 1
118 124 126 1
119 124 127 1
120 124 128 1
