@<TRIPOS>MOLECULE
Molecule Name
219 204
SMALL
NO_CHARGES

@<TRIPOS>ATOM
1 C1	0.0000	0.0000	0.0000 C
2 O2	-1.2301	0.0000	0.0000 O
3 O3	0.6891	1.1844	0.0000 O
4 H4	1.6729	1.0834	-0.0443 H
5 N5	2.0209	-1.2116	0.8656 N
6 C6	3.4101	-0.0122	-0.7253 C
7 H7	2.6951	-0.0467	-1.5392 H
8 H8	4.3643	0.4456	-0.9488 H
9 C9	3.2134	-0.6098	0.4850 C
10 C10	4.3083	-0.6053	1.5299 C
11 H11	4.5965	-1.6261	1.8092 H
12 H12	5.1946	-0.0982	1.1450 H
13 H13	3.9912	-0.0923	2.4457 H
14 C14	0.3623	-2.4334	2.0593 C
15 C15	1.8408	-2.0013	2.1085 C
16 C16	0.8404	-1.2995	-0.0174 C
17 C17	0.0431	-2.4876	0.5506 C
18 H18	0.1976	-3.3897	2.5634 H
19 H19	-0.2714	-1.6829	2.5452 H
20 H20	2.5078	-2.8758	2.1117 H
21 H21	2.0654	-1.4032	2.9978 H
22 H22	1.1541	-1.4854	-1.0545 H
23 H23	-1.0213	-2.3870	0.3340 H
24 H24	0.4110	-3.4209	0.1099 H
25 O25	0.1814	-2.0037	-3.0699 O
26 H26	-0.3556	-0.3204	-4.0740 H
27 C27	-0.5251	-1.3994	-3.8846 C
28 C28	-1.6525	-2.0170	-4.6873 C
29 C29	-1.7847	-3.5249	-4.4376 C
30 H30	-0.8900	-4.0539	-4.7845 H
31 H31	-2.6520	-3.9288	-4.9707 H
32 H32	-1.8980	-3.7398	-3.3710 H
33 C33	-1.4736	-1.6705	-6.1853 C
34 H34	-2.5714	-1.5091	-4.3427 H
35 H35	-1.3681	-0.5900	-6.3407 H
36 H36	-2.3415	-2.0110	-6.7592 H
37 H37	-0.5829	-2.1625	-6.5931 H
38 O38	1.3448	-1.4261	-3.3425 O
39 H39	3.1372	-1.8827	-4.1845 H
40 C40	2.2902	-1.1729	-4.0976 C
41 C41	2.4108	0.0701	-4.9562 C
42 C42	1.1740	0.9716	-4.8496 C
43 H43	0.2883	0.4608	-5.2436 H
44 H44	1.3207	1.8954	-5.4194 H
45 H45	0.9643	1.2322	-3.8080 H
46 C46	2.7332	-0.3358	-6.4148 C
47 H47	3.2912	0.6125	-4.5666 H
48 H48	3.6119	-0.9898	-6.4679 H
49 H49	2.9375	0.5539	-7.0193 H
50 H50	1.8859	-0.8653	-6.8660 H
51 O51	1.3588	-5.3714	2.4795 O
52 H52	0.5195	-7.1919	2.1458 H
53 C53	1.2473	-6.5798	2.7152 C
54 C54	2.0449	-7.3421	3.7542 C
55 C55	3.0861	-6.4568	4.4513 C
56 H56	3.8413	-6.1122	3.7361 H
57 H57	3.5936	-7.0130	5.2468 H
58 H58	2.6202	-5.5684	4.8875 H
59 C59	2.6665	-8.6041	3.1083 C
60 H60	1.3044	-7.6876	4.4981 H
61 H61	1.9083	-9.2159	2.6048 H
62 H62	3.1469	-9.2233	3.8728 H
63 H63	3.4271	-8.3265	2.3692 H
64 O64	2.2681	-1.3352	5.2853 O
65 H65	0.9615	-2.8232	5.7420 H
66 C66	1.6730	-2.0515	6.0983 C
67 C67	1.8276	-1.9748	7.6040 C
68 C68	2.8811	-0.9432	8.0277 C
69 H69	3.8750	-1.2377	7.6727 H
70 H70	2.9171	-0.8557	9.1188 H
71 H71	2.6618	0.0414	7.6045 H
72 C72	2.1104	-3.3879	8.1693 C
73 H73	0.8386	-1.6629	7.9857 H
74 H74	1.3538	-4.1123	7.8445 H
75 H75	2.1083	-3.3653	9.2639 H
76 H76	3.0917	-3.7480	7.8392 H
77 O77	1.8603	-4.4668	-1.3343 O
78 H78	3.1097	-4.9384	-2.8662 H
79 C79	2.0733	-4.8901	-2.4760 C
80 C80	1.0074	-5.3721	-3.4396 C
81 C81	-0.3929	-5.3530	-2.8132 C
82 H82	-0.4518	-6.0581	-1.9767 H
83 H83	-1.1497	-5.6332	-3.5538 H
84 H84	-0.6366	-4.3609	-2.4218 H
85 C85	1.3984	-6.7643	-3.9921 C
86 H86	1.0364	-4.6647	-4.2880 H
87 H87	2.4068	-6.7597	-4.4233 H
88 H88	0.6976	-7.0714	-4.7752 H
89 H89	1.3706	-7.5185	-3.1970 H
90 O90	5.5836	-3.0145	3.3519 O
91 H91	5.1111	-4.9629	3.6850 H
92 C92	5.8965	-4.1862	3.5916 C
93 C93	7.3140	-4.6887	3.7790 C
94 C94	8.3553	-3.5833	3.5610 C
95 H95	8.3330	-3.2304	2.5239 H
96 H96	9.3626	-3.9556	3.7764 H
97 H97	8.1559	-2.7209	4.2038 H
98 C98	7.5510	-5.9227	2.8751 C
99 H99	7.3666	-5.0368	4.8264 H
100 H100	6.7892	-6.6949	3.0369 H
101 H101	8.5301	-6.3647	3.0865 H
102 H102	7.5288	-5.6378	1.8167 H
103 O103	-6.8179	0.5568	1.7762 O
104 H104	-5.9819	2.3222	2.3373 H
105 C105	-5.8421	1.2992	1.9340 C
106 C106	-4.4068	0.9312	1.6158 C
107 C107	-4.2721	-0.5199	1.1363 C
108 H108	-4.5557	-1.2177	1.9320 H
109 H109	-3.2390	-0.7340	0.8426 H
110 H110	-4.9268	-0.7156	0.2819 H
111 C111	-3.5075	1.2456	2.8358 C
112 H112	-4.1019	1.6133	0.8016 H
113 H113	-3.6282	2.2830	3.1706 H
114 H114	-2.4541	1.0940	2.5791 H
115 H115	-3.7503	0.5852	3.6766 H
116 O116	2.5651	-0.3701	-3.8094 O
117 H117	4.0315	-0.1459	-5.1986 H
118 C118	3.1981	0.3086	-4.6261 C
119 C119	2.9347	1.7685	-4.9360 C
120 C120	1.7230	2.3152	-4.1702 C
121 H121	0.8051	1.8064	-4.4851 H
122 H122	1.6029	3.3880	-4.3550 H
123 H123	1.8319	2.1554	-3.0934 H
124 C124	2.8129	1.9602	-6.4672 C
125 H125	3.8436	2.3067	-4.6114 H
126 H126	3.6821	1.5515	-6.9965 H
127 H127	2.7390	3.0250	-6.7110 H
128 H128	1.9148	1.4615	-6.8499 H
129 O129	-6.2367	2.6050	-3.3396 O
130 H130	-6.4362	1.4619	-1.6711 H
131 C131	-5.7632	1.9734	-2.3882 C
132 C132	-4.2846	1.8224	-2.0922 C
133 C133	-3.4076	2.4859	-3.1619 C
134 H134	-3.5372	1.9897	-4.1302 H
135 H135	-2.3500	2.4268	-2.8835 H
136 H136	-3.6763	3.5379	-3.2956 H
137 C137	-3.9471	0.3262	-1.8833 C
138 H138	-4.1251	2.3308	-1.1241 H
139 H139	-4.5932	-0.1321	-1.1248 H
140 H140	-2.9088	0.2143	-1.5548 H
141 H141	-4.0692	-0.2328	-2.8185 H
142 O142	6.4457	0.9659	-1.7719 O
143 H143	7.4301	2.1232	-3.1216 H
144 C144	7.0668	1.1173	-2.8299 C
145 C145	7.3959	0.0119	-3.8131 C
146 C146	6.9350	-1.3640	-3.3152 C
147 H147	7.4763	-1.6470	-2.4055 H
148 H148	7.1173	-2.1298	-4.0767 H
149 H149	5.8684	-1.3588	-3.0721 H
150 C150	8.9055	0.0521	-4.1530 C
151 H151	6.8466	0.2672	-4.7373 H
152 H152	9.2170	1.0467	-4.4943 H
153 H153	9.1338	-0.6647	-4.9485 H
154 H154	9.5074	-0.2117	-3.2756 H
155 O155	-5.9966	3.0327	-1.1074 O
156 H156	-4.9182	4.5584	-0.3077 H
157 C157	-5.0420	3.4664	-0.4525 C
158 C158	-3.9748	2.6125	0.2022 C
159 C159	-4.2457	1.1122	0.0309 C
160 H160	-5.1693	0.8250	0.5457 H
161 H161	-3.4219	0.5223	0.4469 H
162 H162	-4.3654	0.8508	-1.0246 H
163 C163	-3.8151	3.0277	1.6849 C
164 H164	-3.0325	2.8733	-0.3127 H
165 H165	-3.6352	4.1048	1.7861 H
166 H166	-2.9690	2.5001	2.1370 H
167 H167	-4.7161	2.7769	2.2568 H
168 O168	2.3265	-5.1229	0.4283 O
169 H169	0.3746	-5.6804	0.5261 H
170 C170	1.4418	-5.9801	0.5316 C
171 C171	1.6839	-7.4697	0.6715 C
172 C172	3.1742	-7.8254	0.5942 C
173 H173	3.5789	-7.5816	-0.3944 H
174 H174	3.3243	-8.8954	0.7735 H
175 H175	3.7532	-7.2621	1.3320 H
176 C176	0.8299	-8.2343	-0.3688 C
177 H177	1.2971	-7.7379	1.6713 H
178 H178	-0.2291	-7.9563	-0.3057 H
179 H179	0.9063	-9.3136	-0.2019 H
180 H180	1.1782	-8.0229	-1.3866 H
181 O181	2.1166	-5.6902	1.1580 O
182 H182	0.4960	-5.6628	2.3839 H
183 C183	1.3696	-6.2192	1.9888 C
184 C184	1.5381	-7.6184	2.5460 C
185 C185	2.7165	-8.3613	1.9032 C
186 H186	2.5360	-8.5205	0.8342 H
187 H187	2.8605	-9.3380	2.3773 H
188 H188	3.6429	-7.7870	1.9960 H
189 C189	0.2025	-8.3909	2.4220 C
190 H190	1.7378	-7.4834	3.6245 H
191 H191	-0.6285	-7.8375	2.8759 H
192 H192	0.2774	-9.3603	2.9253 H
193 H193	-0.0434	-8.5733	1.3694 H
194 O194	4.8674	1.6024	3.7269 O
195 H195	4.6982	3.3234	2.6593 H
196 C196	5.3439	2.6332	3.2385 C
197 C197	6.7911	3.0665	3.3595 C
198 C198	7.6118	2.1114	4.2357 C
199 H199	7.2439	2.1213	5.2677 H
200 H200	8.6666	2.4064	4.2433 H
201 H201	7.5387	1.0819	3.8729 H
202 C202	6.8546	4.5336	3.8491 C
203 H203	7.1904	3.0490	2.3292 H
204 H204	6.2516	5.1972	3.2176 H
205 H205	7.8877	4.8953	3.8291 H
206 H206	6.4865	4.6148	4.8785 H
207 O207	0.3895	5.3585	-2.8253 O
208 H208	-0.9357	4.0091	-2.0817 H
209 C209	0.0509	4.2022	-2.5486 C
210 C210	0.8909	2.9654	-2.7965 C
211 C211	2.2073	3.2917	-3.5134 C
212 H212	2.0133	3.6871	-4.5167 H
213 H213	2.8255	2.3928	-3.6112 H
214 H214	2.7763	4.0503	-2.9679 H
215 C215	0.0465	1.9061	-3.5456 C
216 H216	1.1138	2.5557	-1.7947 H
217 H217	-0.8953	1.6969	-3.0240 H
218 H218	0.6030	0.9668	-3.6275 H
219 H219	-0.1934	2.2478	-4.5592 H
@<TRIPOS>BOND
1 1 2 2
2 1 3 1
3 1 16 1
4 3 4 1
5 5 9 1
6 5 15 1
7 5 16 1
8 6 7 1
9 6 8 1
10 6 9 2
11 9 10 1
12 10 11 1
13 10 12 1
14 10 13 1
15 14 15 1
16 14 17 1
17 14 18 1
18 14 19 1
19 15 20 1
20 15 21 1
21 16 17 1
22 16 22 1
23 17 23 1
24 17 24 1
25 25 27 2
26 26 27 1
27 27 28 1
28 28 29 1
29 28 33 1
30 28 34 1
31 29 30 1
32 29 31 1
33 29 32 1
34 33 35 1
35 33 36 1
36 33 37 1
37 38 40 2
38 39 40 1
39 40 41 1
40 41 42 1
41 41 46 1
42 41 47 1
43 42 43 1
44 42 44 1
45 42 45 1
46 46 48 1
47 46 49 1
48 46 50 1
49 51 53 2
50 52 53 1
51 53 54 1
52 54 55 1
53 54 59 1
54 54 60 1
55 55 56 1
56 55 57 1
57 55 58 1
58 59 61 1
59 59 62 1
60 59 63 1
61 64 66 2
62 65 66 1
63 66 67 1
64 67 68 1
65 67 72 1
66 67 73 1
67 68 69 1
68 68 70 1
69 68 71 1
70 72 74 1
71 72 75 1
72 72 76 1
73 77 79 2
74 78 79 1
75 79 80 1
76 80 81 1
77 80 85 1
78 80 86 1
79 81 82 1
80 81 83 1
81 81 84 1
82 85 87 1
83 85 88 1
84 85 89 1
85 90 92 2
86 91 92 1
87 92 93 1
88 93 94 1
89 93 98 1
90 93 99 1
91 94 95 1
92 94 96 1
93 94 97 1
94 98 100 1
95 98 101 1
96 98 102 1
97 103 105 2
98 104 105 1
99 105 106 1
100 106 107 1
101 106 111 1
102 106 112 1
103 107 108 1
104 107 109 1
105 107 110 1
106 111 113 1
107 111 114 1
108 111 115 1
109 116 118 2
110 117 118 1
111 118 119 1
112 119 120 1
113 119 124 1
114 119 125 1
115 120 121 1
116 120 122 1
117 120 123 1
118 124 126 1
119 124 127 1
120 124 128 1
121 129 131 2
122 130 131 1
123 131 132 1
124 132 133 1
125 132 137 1
126 132 138 1
127 133 134 1
128 133 135 1
129 133 136 1
130 137 139 1
131 137 140 1
132 137 141 1
133 142 144 2
134 143 144 1
135 144 145 1
136 145 146 1
137 145 150 1
138 145 151 1
139 146 147 1
140 146 148 1
141 146 149 1
142 150 152 1
143 150 153 1
144 150 154 1
145 155 157 2
146 156 157 1
147 157 158 1
148 158 159 1
149 158 163 1
150 158 164 1
151 159 160 1
152 159 161 1
153 159 162 1
154 163 165 1
155 163 166 1
156 163 167 1
157 168 170 2
158 169 170 1
159 170 171 1
160 171 172 1
161 171 176 1
162 171 177 1
163 172 173 1
164 172 174 1
165 172 175 1
166 176 178 1
167 176 179 1
168 176 180 1
169 181 183 2
170 182 183 1
171 183 184 1
172 184 185 1
173 184 189 1
174 184 190 1
175 185 186 1
176 185 187 1
177 185 188 1
178 189 191 1
179 189 192 1
180 189 193 1
181 194 196 2
182 195 196 1
183 196 197 1
184 197 198 1
185 197 202 1
186 197 203 1
187 198 199 1
188 198 200 1
189 198 201 1
190 202 204 1
191 202 205 1
192 202 206 1
193 207 209 2
194 208 209 1
195 209 210 1
196 210 211 1
197 210 215 1
198 210 216 1
199 211 212 1
200 211 213 1
201 211 214 1
202 215 217 1
203 215 218 1
204 215 219 1
