@<TRIPOS>MOLECULE
Molecule Name
50 48
SMALL
NO_CHARGES

@<TRIPOS>ATOM
1 C1	0.0000	0.0000	0.0000 C
2 O2	-1.2246	0.0000	0.0000 O
3 O3	0.6881	1.2055	0.0000 O
4 H4	1.6588	1.0929	0.0557 H
5 N5	0.3558	-2.3607	0.7055 N
6 C6	1.0256	-1.3436	2.7970 C
7 H7	1.3523	-0.4154	2.3448 H
8 H8	1.1199	-1.4104	3.8728 H
9 C9	0.4813	-2.3674	2.0966 C
10 C10	-0.0226	-3.6124	2.7917 C
11 H11	0.4582	-4.5189	2.4030 H
12 H12	0.1810	-3.5524	3.8626 H
13 H13	-1.1053	-3.7341	2.6626 H
14 C14	-0.3899	-2.7806	-1.5086 C
15 C15	-0.3284	-3.3966	-0.0970 C
16 C16	0.8713	-1.2663	-0.0994 C
17 C17	0.8242	-1.8287	-1.5478 C
18 H18	-0.3527	-3.5394	-2.2955 H
19 H19	-1.3137	-2.2059	-1.6225 H
20 H20	0.2410	-4.3382	-0.0960 H
21 H21	-1.3298	-3.6077	0.2923 H
22 H22	1.9010	-1.0275	0.2077 H
23 H23	0.7292	-1.0444	-2.3047 H
24 H24	1.7500	-2.3819	-1.7438 H
25 O25	3.5706	1.3869	1.4338 O
26 H26	2.4420	1.4517	3.1226 H
27 C27	3.3093	1.8417	2.5532 C
28 C28	4.0948	2.9306	3.2563 C
29 C29	5.3241	3.3716	2.4515 C
30 H30	6.0394	2.5471	2.3556 H
31 H31	5.8280	4.2088	2.9463 H
32 H32	5.0438	3.6799	1.4400 H
33 C33	4.4505	2.4701	4.6908 C
34 H34	3.3970	3.7822	3.3509 H
35 H35	3.5605	2.1471	5.2443 H
36 H36	4.9151	3.2903	5.2476 H
37 H37	5.1585	1.6336	4.6648 H
38 O38	4.1014	-0.3665	0.1051 O
39 H39	3.5360	0.4056	-1.6878 H
40 C40	4.3297	0.2785	-0.9245 C
41 C41	5.6492	0.9436	-1.2614 C
42 C42	6.6781	0.7969	-0.1330 C
43 H43	6.3395	1.3190	0.7689 H
44 H44	7.6425	1.2198	-0.4341 H
45 H45	6.8244	-0.2539	0.1336 H
46 C46	5.4004	2.4190	-1.6583 C
47 H47	6.0200	0.4217	-2.1621 H
48 H48	4.6530	2.5026	-2.4566 H
49 H49	6.3285	2.8768	-2.0154 H
50 H50	5.0461	2.9974	-0.7971 H
@<TRIPOS>BOND
1 1 2 2
2 1 3 1
3 1 16 1
4 3 4 1
5 5 9 1
6 5 15 1
7 5 16 1
8 6 7 1
9 6 8 1
10 6 9 2
11 9 10 1
12 10 11 1
13 10 12 1
14 10 13 1
15 14 15 1
16 14 17 1
17 14 18 1
18 14 19 1
19 15 20 1
20 15 21 1
21 16 17 1
22 16 22 1
23 17 23 1
24 17 24 1
25 25 27 2
26 26 27 1
27 27 28 1
28 28 29 1
29 28 33 1
30 28 34 1
31 29 30 1
32 29 31 1
33 29 32 1
34 33 35 1
35 33 36 1
36 33 37 1
37 38 40 2
38 39 40 1
39 40 41 1
40 41 42 1
41 41 46 1
42 41 47 1
43 42 43 1
44 42 44 1
45 42 45 1
46 46 48 1
47 46 49 1
48 46 50 1
