@<TRIPOS>MOLECULE
Molecule Name
492 456
SMALL
NO_CHARGES

@<TRIPOS>ATOM
1 C1	0.0000	0.0000	0.0000 C
2 O2	-1.2320	0.0000	0.0000 O
3 O3	0.7390	1.1677	0.0000 O
4 H4	0.1439	1.9494	0.0084 H
5 N5	0.3714	-2.3475	0.6857 N
6 C6	0.9223	-1.3693	2.8311 C
7 H7	1.3055	-0.4466	2.4129 H
8 H8	0.9484	-1.4572	3.9095 H
9 C9	0.4166	-2.3781	2.0818 C
10 C10	-0.1368	-3.6308	2.7243 C
11 H11	0.3680	-4.5332	2.3570 H
12 H12	-0.0052	-3.5860	3.8072 H
13 H13	-1.2085	-3.7491	2.5201 H
14 C14	-0.2231	-2.7506	-1.5787 C
15 C15	-0.2468	-3.3802	-0.1708 C
16 C16	0.9075	-1.2255	-0.0708 C
17 C17	0.9662	-1.7685	-1.5251 C
18 H18	-0.1121	-3.5015	-2.3665 H
19 H19	-1.1530	-2.2012	-1.7566 H
20 H20	0.3318	-4.3158	-0.1430 H
21 H21	-1.2695	-3.6091	0.1482 H
22 H22	1.8978	-0.9358	0.2950 H
23 H23	0.9066	-0.9754	-2.2759 H
24 H24	1.9171	-2.2953	-1.6639 H
25 O25	-0.6384	3.7744	1.1642 O
26 H26	-2.6633	3.6995	1.3203 H
27 C27	-1.6937	3.9956	1.7687 C
28 C28	-1.7973	4.6626	3.1256 C
29 C29	-0.4204	4.9766	3.7249 C
30 H30	0.1341	4.0527	3.9240 H
31 H31	-0.5266	5.5244	4.6673 H
32 H32	0.1819	5.5769	3.0367 H
33 C33	-2.6766	3.7994	4.0626 C
34 H34	-2.3410	5.6081	2.9478 H
35 H35	-3.6505	3.5756	3.6107 H
36 H36	-2.8550	4.3257	5.0059 H
37 H37	-2.1807	2.8492	4.2927 H
38 O38	-2.0240	2.8909	0.3830 O
39 H39	-2.7435	1.4813	-0.8919 H
40 C40	-2.9313	2.1659	-0.0406 C
41 C41	-4.3404	2.1188	0.5153 C
42 C42	-4.5131	3.0297	1.7376 C
43 H43	-3.8876	2.6844	2.5683 H
44 H44	-5.5565	3.0333	2.0706 H
45 H45	-4.2148	4.0571	1.5094 H
46 C46	-4.7368	0.6500	0.8010 C
47 H47	-4.9911	2.4790	-0.3019 H
48 H48	-4.5938	0.0136	-0.0806 H
49 H49	-5.7906	0.5918	1.0922 H
50 H50	-4.1353	0.2386	1.6200 H
51 O51	-0.8434	3.8554	-0.8117 O
52 H52	-1.1231	3.9682	-2.8214 H
53 C53	-1.3655	4.3588	-1.8127 C
54 C54	-2.3503	5.5106	-1.7959 C
55 C55	-2.7024	5.9526	-0.3697 C
56 H56	-3.2219	5.1505	0.1664 H
57 H57	-3.3547	6.8323	-0.3893 H
58 H58	-1.8019	6.1970	0.2014 H
59 C59	-3.5977	5.1394	-2.6340 C
60 H60	-1.8413	6.3404	-2.3189 H
61 H61	-3.3236	4.8141	-3.6449 H
62 H62	-4.2631	6.0039	-2.7262 H
63 H63	-4.1591	4.3286	-2.1551 H
64 O64	-0.1402	4.0131	0.9724 O
65 H65	-1.4753	2.8913	2.0161 H
66 C66	-0.7518	3.7311	2.0090 C
67 C67	-0.6027	4.4539	3.3327 C
68 C68	0.4671	5.5521	3.2773 C
69 H69	1.4572	5.1183	3.0979 H
70 H70	0.4996	6.1058	4.2217 H
71 H71	0.2674	6.2569	2.4648 H
72 C72	-0.3479	3.4246	4.4604 C
73 H73	-1.5877	4.9149	3.5286 H
74 H74	-1.1158	2.6417	4.4746 H
75 H75	-0.3546	3.9219	5.4358 H
76 H76	0.6284	2.9427	4.3319 H
77 O77	-0.7590	3.1799	-1.7118 O
78 H78	0.2525	1.7706	-2.7704 H
79 C79	-0.4877	2.5958	-2.7669 C
80 C80	-1.0956	2.9112	-4.1188 C
81 C81	-2.1660	4.0069	-4.0326 C
82 H82	-3.0169	3.6693	-3.4303 H
83 H83	-2.5326	4.2663	-5.0315 H
84 H84	-1.7692	4.9100	-3.5597 H
85 C85	-1.6219	1.6083	-4.7681 C
86 H86	-0.2567	3.2703	-4.7420 H
87 H87	-0.8458	0.8344	-4.8084 H
88 H88	-1.9572	1.8039	-5.7918 H
89 H89	-2.4724	1.2097	-4.2028 H
90 O90	-0.7590	3.1799	-1.7118 O
91 H91	0.2525	1.7706	-2.7704 H
92 C92	-0.4877	2.5958	-2.7669 C
93 C93	-1.0956	2.9112	-4.1188 C
94 C94	-2.1660	4.0069	-4.0326 C
95 H95	-3.0169	3.6693	-3.4303 H
96 H96	-2.5326	4.2663	-5.0315 H
97 H97	-1.7692	4.9100	-3.5597 H
98 C98	-1.6219	1.6083	-4.7681 C
99 H99	-0.2567	3.2703	-4.7420 H
100 H100	-0.8458	0.8344	-4.8084 H
101 H101	-1.9572	1.8039	-5.7918 H
102 H102	-2.4724	1.2097	-4.2028 H
103 O103	-0.6291	3.2237	-1.7401 O
104 H104	-1.5346	3.3129	-3.5573 H
105 C105	-0.5937	3.2402	-2.9756 C
106 C106	0.6678	3.1674	-3.8123 C
107 C107	1.9362	3.1469	-2.9496 C
108 H108	2.0400	4.0848	-2.3925 H
109 H109	2.8256	3.0181	-3.5757 H
110 H110	1.9026	2.3345	-2.2177 H
111 C111	0.6680	4.3143	-4.8520 C
112 H112	0.5941	2.2185	-4.3737 H
113 H113	-0.2520	4.3192	-5.4489 H
114 H114	1.5147	4.2042	-5.5373 H
115 H115	0.7579	5.2875	-4.3553 H
116 O116	-1.1359	3.1789	1.4684 O
117 H117	-1.7365	4.8284	2.4924 H
118 C118	-1.3791	3.7795	2.5211 C
119 C119	-1.2298	3.1960	3.9118 C
120 C120	-0.8077	1.7213	3.8804 C
121 H121	-1.5865	1.1063	3.4158 H
122 H122	-0.6346	1.3488	4.8957 H
123 H123	0.1074	1.5852	3.2966 H
124 C124	-2.5318	3.4302	4.7156 C
125 H125	-0.4355	3.7916	4.3970 H
126 H126	-2.8229	4.4875	4.7148 H
127 H127	-2.3960	3.1180	5.7561 H
128 H128	-3.3587	2.8482	4.2919 H
129 O129	-1.6083	2.8846	1.1637 O
130 H130	-3.3136	2.2738	2.0852 H
131 C131	-2.3527	2.8228	2.1487 C
132 C132	-2.0676	3.4530	3.4972 C
133 C133	-0.6914	4.1295	3.5426 C
134 H134	0.1073	3.3894	3.4204 H
135 H135	-0.5446	4.6395	4.5007 H
136 H136	-0.5846	4.8612	2.7364 H
137 C137	-2.2539	2.3968	4.6135 C
138 H138	-2.8535	4.2170	3.6368 H
139 H139	-3.2380	1.9163	4.5555 H
140 H140	-2.1651	2.8668	5.5982 H
141 H141	-1.4879	1.6159	4.5398 H
142 O142	0.1447	4.1366	0.7196 O
143 H143	0.8737	5.4999	-0.5995 H
144 C144	0.8961	5.0723	0.4230 C
145 C145	1.8909	5.7227	1.3632 C
146 C146	1.8179	5.1389	2.7801 C
147 H147	0.8439	5.3502	3.2354 H
148 H148	2.5967	5.5731	3.4160 H
149 H149	1.9428	4.0522	2.7660 H
150 C150	1.7022	7.2589	1.3370 C
151 H151	2.8858	5.5090	0.9324 H
152 H152	1.7448	7.6542	0.3149 H
153 H153	2.4890	7.7472	1.9210 H
154 H154	0.7348	7.5379	1.7709 H
155 O155	0.3213	4.2151	-0.3412 O
156 H156	-0.5474	3.9033	-2.1518 H
157 C157	-0.2937	4.6114	-1.3376 C
158 C158	-0.7566	6.0363	-1.5662 C
159 C159	-0.4440	6.9470	-0.3717 C
160 H160	-1.0007	6.6253	0.5155 H
161 H161	-0.7204	7.9830	-0.5948 H
162 H162	0.6199	6.9151	-0.1189 H
163 C163	-2.2570	6.0400	-1.9467 C
164 H164	-0.1952	6.3897	-2.4499 H
165 H165	-2.4612	5.3736	-2.7935 H
166 H166	-2.5742	7.0495	-2.2274 H
167 H167	-2.8724	5.7142	-1.0999 H
168 O168	0.2500	3.8244	1.3317 O
169 H169	-0.2122	5.7918	1.1177 H
170 C170	0.1357	4.9718	1.7774 C
171 C171	0.4384	5.3869	3.2032 C
172 C172	0.8393	4.1951	4.0822 C
173 H173	0.0061	3.4904	4.1812 H
174 H174	1.1244	4.5342	5.0838 H
175 H175	1.6797	3.6477	3.6454 H
176 C176	-0.7600	6.1801	3.7784 C
177 H177	1.2892	6.0883	3.1310 H
178 H178	-1.0387	7.0190	3.1293 H
179 H179	-0.5083	6.5848	4.7640 H
180 H180	-1.6359	5.5307	3.8918 H
181 O181	0.6006	4.1789	0.3653 O
182 H182	0.5852	2.9870	2.0113 H
183 C183	0.6169	4.0118	1.5900 C
184 C184	0.6790	5.1218	2.6201 C
185 C185	0.7992	6.5078	1.9735 C
186 H186	1.7445	6.5987	1.4269 H
187 H187	0.7658	7.2927	2.7366 H
188 H188	-0.0098	6.6808	1.2576 H
189 C189	1.8159	4.8302	3.6294 C
190 H190	-0.2741	5.0608	3.1759 H
191 H191	1.7189	3.8306	4.0701 H
192 H192	1.7962	5.5617	4.4438 H
193 H193	2.7946	4.8939	3.1397 H
194 O194	-0.8281	3.8326	0.8994 O
195 H195	-0.7349	3.4732	2.8974 H
196 C196	-0.3188	3.9973	2.0137 C
197 C197	0.8737	4.8864	2.3040 C
198 C198	1.4489	5.5202	1.0308 C
199 H199	1.8480	4.7496	0.3618 H
200 H200	2.2591	6.2143	1.2785 H
201 H201	0.6778	6.0649	0.4781 H
202 C202	1.9305	4.0911	3.1083 C
203 H203	0.4916	5.6837	2.9668 H
204 H204	1.4965	3.6358	4.0067 H
205 H205	2.7431	4.7532	3.4242 H
206 H206	2.3629	3.2917	2.4954 H
207 O207	-1.9476	2.8845	-0.1486 O
208 H208	-2.7833	2.2550	-1.8909 H
209 C209	-2.7264	3.0275	-1.0979 C
210 C210	-3.6542	4.2098	-1.2934 C
211 C211	-3.5838	5.2022	-0.1256 C
212 H212	-3.9386	4.7356	0.8001 H
213 H213	-4.2058	6.0805	-0.3289 H
214 H214	-2.5560	5.5338	0.0491 H
215 C215	-5.0915	3.7026	-1.5637 C
216 H216	-3.3053	4.7080	-2.2159 H
217 H217	-5.1180	2.9852	-2.3928 H
218 H218	-5.7468	4.5409	-1.8214 H
219 H219	-5.5028	3.2114	-0.6741 H
220 O220	-0.2127	4.1917	-0.3570 O
221 H221	-0.9062	3.2757	-2.0333 H
222 C222	-1.0573	4.0425	-1.2472 C
223 C223	-2.3385	4.8418	-1.3756 C
224 C224	-2.5249	5.8298	-0.2169 C
225 H225	-2.6389	5.2949	0.7326 H
226 H226	-3.4175	6.4446	-0.3750 H
227 H227	-1.6582	6.4898	-0.1177 H
228 C228	-3.5379	3.8771	-1.5402 C
229 H229	-2.2405	5.4046	-2.3215 H
230 H230	-3.3791	3.1714	-2.3646 H
231 H231	-4.4520	4.4417	-1.7502 H
232 H232	-3.6991	3.2993	-0.6226 H
233 O233	-1.8712	2.5260	-0.9337 O
234 H234	-2.7109	3.4169	0.6884 H
235 C235	-2.7810	2.6465	-0.1055 C
236 C236	-4.0413	1.8057	-0.0671 C
237 C237	-4.1131	0.8135	-1.2349 C
238 H238	-4.1771	1.3455	-2.1907 H
239 H239	-4.9940	0.1697	-1.1395 H
240 H240	-3.2204	0.1822	-1.2719 H
241 C241	-5.2801	2.7305	0.0113 C
242 H242	-3.9921	1.2453	0.8841 H
243 H243	-5.2032	3.4401	0.8440 H
244 H244	-6.1880	2.1362	0.1568 H
245 H245	-5.3949	3.3038	-0.9161 H
246 O246	-1.8046	2.6064	-1.0216 O
247 H247	-0.9848	1.5065	-2.5210 H
248 C248	-1.8417	2.1043	-2.1505 C
249 C249	-2.9970	2.2312	-3.1232 C
250 C250	-4.1794	3.0024	-2.5226 C
251 H251	-4.6053	2.4567	-1.6732 H
252 H252	-4.9667	3.1436	-3.2708 H
253 H253	-3.8650	3.9838	-2.1556 H
254 C254	-3.3966	0.8280	-3.6404 C
255 H255	-2.5953	2.7942	-3.9850 H
256 H256	-2.5355	0.2888	-4.0535 H
257 H257	-4.1503	0.9157	-4.4296 H
258 H258	-3.8217	0.2232	-2.8309 H
259 O259	-0.4546	2.5581	-2.1261 O
260 H260	-2.3189	3.2400	-2.5613 H
261 C261	-1.4322	2.6542	-2.8765 C
262 C262	-1.5430	2.0207	-4.2488 C
263 C263	-0.2567	1.2911	-4.6569 C
264 H264	0.5739	1.9987	-4.7567 H
265 H265	-0.3915	0.7808	-5.6166 H
266 H266	0.0332	0.5515	-3.9048 H
267 C267	-1.9796	3.0892	-5.2802 C
268 H268	-2.3670	1.2886	-4.1691 H
269 H269	-2.8928	3.6075	-4.9637 H
270 H270	-2.1758	2.6214	-6.2503 H
271 H271	-1.1919	3.8391	-5.4182 H
272 O272	1.9244	-5.8275	0.5304 O
273 H273	3.3013	-5.6656	2.0163 H
274 C274	3.0224	-6.0929	1.0323 C
275 C275	4.0737	-6.9867	0.4056 C
276 C276	3.5968	-7.6068	-0.9141 C
277 H277	2.7467	-8.2763	-0.7416 H
278 H278	4.4015	-8.1851	-1.3807 H
279 H279	3.2675	-6.8353	-1.6164 H
280 C280	4.5339	-8.0474	1.4349 C
281 H281	4.9388	-6.3285	0.2068 H
282 H282	4.8583	-7.5847	2.3749 H
283 H283	5.3741	-8.6240	1.0347 H
284 H284	3.7201	-8.7461	1.6614 H
285 O285	4.0414	-3.0099	-1.1547 O
286 H286	4.5380	-4.9756	-1.0161 H
287 C287	4.6547	-3.9444	-0.6267 C
288 C288	5.5939	-3.8128	0.5555 C
289 C289	5.7715	-2.3541	0.9962 C
290 H290	6.2541	-1.7677	0.2063 H
291 H291	6.3932	-2.2969	1.8961 H
292 H292	4.8059	-1.8852	1.2073 H
293 C293	6.9376	-4.5092	0.2308 C
294 H294	5.1193	-4.3848	1.3732 H
295 H295	6.7878	-5.5458	-0.0943 H
296 H296	7.5809	-4.5228	1.1166 H
297 H297	7.4684	-3.9750	-0.5658 H
298 O298	1.8861	0.0882	-4.0605 O
299 H299	2.5692	0.5165	-5.9261 H
300 C300	2.0163	0.8503	-5.0251 C
301 C301	1.4689	2.2615	-5.1008 C
302 C302	0.6502	2.6341	-3.8580 C
303 H303	-0.2440	2.0054	-3.7816 H
304 H304	0.3321	3.6810	-3.9063 H
305 H305	1.2320	2.4867	-2.9434 H
306 C306	0.6753	2.4405	-6.4177 C
307 H307	2.3557	2.9179	-5.1627 H
308 H308	1.2734	2.1568	-7.2922 H
309 H309	0.3742	3.4860	-6.5394 H
310 H310	-0.2317	1.8248	-6.4103 H
311 O311	-7.0198	0.0998	3.1227 O
312 H312	-5.4870	1.0538	4.0558 H
313 C313	-5.8712	0.5562	3.1427 C
314 C314	-4.8909	0.4997	1.9883 C
315 C315	-5.4542	-0.2677	0.7853 C
316 H316	-5.6234	-1.3193	1.0426 H
317 H317	-4.7565	-0.2275	-0.0580 H
318 H318	-6.4140	0.1487	0.4659 H
319 C319	-3.5388	-0.0690	2.4829 C
320 H320	-4.7159	1.5518	1.6993 H
321 H321	-3.1601	0.4848	3.3504 H
322 H322	-2.7882	-0.0064	1.6884 H
323 H323	-3.6428	-1.1222	2.7692 H
324 O324	-4.5906	2.5272	-4.5910 O
325 H325	-4.3188	3.6778	-2.9381 H
326 C326	-4.1318	2.7174	-3.4590 C
327 C327	-3.3003	1.7205	-2.6769 C
328 C328	-3.1436	0.3867	-3.4187 C
329 H329	-4.1145	-0.1082	-3.5331 H
330 H330	-2.4777	-0.2849	-2.8664 H
331 H331	-2.7344	0.5387	-4.4217 H
332 C332	-3.8928	1.5512	-1.2569 C
333 H333	-2.3074	2.1917	-2.5619 H
334 H334	-4.0086	2.5164	-0.7493 H
335 H335	-3.2362	0.9243	-0.6448 H
336 H336	-4.8764	1.0692	-1.3024 H
337 O337	0.6057	-3.4802	6.0197 O
338 H338	0.8380	-4.5689	7.7199 H
339 C339	0.8056	-3.5721	7.2361 C
340 C340	1.0208	-2.4018	8.1747 C
341 C341	1.0418	-1.0590	7.4330 C
342 H342	1.8944	-1.0100	6.7465 H
343 H343	1.1228	-0.2286	8.1425 H
344 H344	0.1346	-0.9232	6.8370 H
345 C345	2.2963	-2.6409	9.0185 C
346 H346	0.1619	-2.4203	8.8696 H
347 H347	2.2672	-3.6108	9.5297 H
348 H348	2.3986	-1.8609	9.7799 H
349 H349	3.1905	-2.6159	8.3848 H
350 O350	0.5598	-6.5490	0.3516 O
351 H351	2.5489	-6.2232	0.6120 H
352 C352	1.7454	-6.8582	0.1876 C
353 C353	2.2313	-8.0764	-0.5718 C
354 C354	1.0729	-8.9526	-1.0659 C
355 H355	0.5165	-9.3709	-0.2197 H
356 H356	1.4498	-9.7820	-1.6739 H
357 H357	0.3665	-8.3714	-1.6658 H
358 C358	3.2469	-8.8583	0.2962 C
359 H359	2.7841	-7.6792	-1.4423 H
360 H360	4.0591	-8.2116	0.6496 H
361 H361	3.6921	-9.6734	-0.2834 H
362 H362	2.7527	-9.2951	1.1719 H
363 O363	3.8942	0.8589	1.1688 O
364 H364	2.5339	1.4900	2.5404 H
365 C365	3.2209	1.7441	1.7084 C
366 C366	3.2435	3.2107	1.3270 C
367 C367	4.2687	3.5082	0.2251 C
368 H368	5.2861	3.3098	0.5800 H
369 H369	4.2097	4.5578	-0.0822 H
370 H370	4.0998	2.8765	-0.6520 H
371 C371	3.4577	4.0734	2.5943 C
372 H372	2.2288	3.4320	0.9495 H
373 H373	2.7235	3.8364	3.3737 H
374 H374	3.3597	5.1361	2.3500 H
375 H375	4.4596	3.9114	3.0086 H
376 O376	-6.2046	-2.4257	-1.3158 O
377 H377	-4.1810	-2.2525	-1.3870 H
378 C378	-5.0939	-2.3930	-0.7741 C
379 C379	-4.8460	-2.5325	0.7145 C
380 C380	-6.1514	-2.6458	1.5123 C
381 H381	-6.7386	-1.7248	1.4254 H
382 H382	-5.9405	-2.8209	2.5727 H
383 H383	-6.7724	-3.4653	1.1388 H
384 C384	-3.9441	-1.3725	1.2014 C
385 H385	-4.2667	-3.4664	0.8299 H
386 H386	-3.0231	-1.3007	0.6104 H
387 H387	-3.6624	-1.5255	2.2483 H
388 H388	-4.4719	-0.4145	1.1286 H
389 O389	-4.3629	4.7441	3.6102 O
390 H390	-2.8185	3.6547	4.3572 H
391 C391	-3.4151	3.9622	3.4750 C
392 C392	-2.9677	3.3543	2.1608 C
393 C393	-3.8793	3.7573	0.9945 C
394 H394	-4.8907	3.3618	1.1401 H
395 H395	-3.4896	3.3665	0.0485 H
396 H396	-3.9623	4.8453	0.9162 H
397 C397	-2.8361	1.8198	2.3168 C
398 H398	-1.9522	3.7522	1.9833 H
399 H399	-2.1915	1.5531	3.1630 H
400 H400	-2.4028	1.3828	1.4113 H
401 H401	-3.8186	1.3611	2.4783 H
402 O402	-2.6135	-2.2978	3.6151 O
403 H403	-2.1960	-0.3248	3.3634 H
404 C404	-2.7671	-1.1058	3.9045 C
405 C405	-3.7027	-0.5827	4.9758 C
406 C406	-4.5186	-1.7040	5.6320 C
407 H407	-5.1866	-2.1741	4.9016 H
408 H408	-5.1282	-1.3077	6.4511 H
409 H409	-3.8656	-2.4870	6.0286 H
410 C410	-4.5912	0.5395	4.3863 C
411 H411	-3.0491	-0.1161	5.7349 H
412 H412	-3.9898	1.3239	3.9110 H
413 H413	-5.1886	1.0045	5.1771 H
414 H414	-5.2792	0.1345	3.6349 H
415 O415	-5.3443	4.3337	2.8904 O
416 H416	-5.9205	2.4505	2.3886 H
417 C417	-5.1001	3.1432	2.6639 C
418 C418	-3.7256	2.5081	2.7283 C
419 C419	-2.6264	3.5329	3.0372 C
420 H420	-2.5431	4.2662	2.2273 H
421 H421	-1.6575	3.0353	3.1522 H
422 H422	-2.8480	4.0845	3.9556 H
423 C423	-3.4581	1.7160	1.4255 C
424 H424	-3.7795	1.7730	3.5516 H
425 H425	-4.2610	0.9988	1.2162 H
426 H426	-2.5197	1.1580	1.5073 H
427 H427	-3.3755	2.3953	0.5691 H
428 O428	-2.3631	2.5133	4.9818 O
429 H429	-0.9536	2.1917	3.5535 H
430 C430	-1.3377	1.9610	4.5674 C
431 C431	-0.5159	0.9528	5.3452 C
432 C432	-1.0549	0.7362	6.7651 C
433 H433	-0.9737	1.6567	7.3539 H
434 H434	-0.4890	-0.0502	7.2758 H
435 H435	-2.1111	0.4522	6.7472 H
436 C436	0.9740	1.3726	5.3267 C
437 H437	-0.5954	0.0080	4.7777 H
438 H438	1.3358	1.5349	4.3042 H
439 H439	1.5927	0.5939	5.7842 H
440 H440	1.1223	2.2999	5.8924 H
441 O441	1.0354	7.1659	-2.0862 O
442 H442	0.9130	5.9410	-3.7032 H
443 C443	0.6005	6.1628	-2.6630 C
444 C444	-0.3626	5.1599	-2.0602 C
445 C445	-0.6945	5.4807	-0.5971 C
446 H446	0.2010	5.3994	0.0291 H
447 H447	-1.4482	4.7856	-0.2120 H
448 H448	-1.0739	6.5015	-0.4932 H
449 C449	0.1938	3.7278	-2.2489 C
450 H450	-1.2831	5.2347	-2.6670 H
451 H451	0.4365	3.5232	-3.2987 H
452 H452	-0.5449	2.9884	-1.9229 H
453 H453	1.1032	3.5839	-1.6540 H
454 O454	8.0864	1.1088	-1.0244 O
455 H455	6.8748	2.1494	0.2324 H
456 C456	7.1381	1.1791	-0.2346 C
457 C457	6.2590	0.0152	0.1773 C
458 C458	6.6253	-1.2787	-0.5611 C
459 H459	6.4429	-1.1748	-1.6365 H
460 H460	6.0260	-2.1167	-0.1895 H
461 H461	7.6842	-1.5208	-0.4314 H
462 C462	4.7703	0.4030	0.0055 C
463 H463	6.4380	-0.1200	1.2593 H
464 H464	4.5324	1.3365	0.5296 H
465 H465	4.1249	-0.3843	0.4083 H
466 H466	4.5239	0.5344	-1.0546 H
467 O467	-1.2371	-0.9701	8.4337 O
468 H468	-1.9690	-2.6544	7.5631 H
469 C469	-1.4810	-1.6665	7.4419 C
470 C470	-1.1640	-1.2847	6.0099 C
471 C471	-0.5626	0.1226	5.9038 C
472 H472	-1.2877	0.8781	6.2264 H
473 H473	-0.2744	0.3412	4.8700 H
474 H474	0.3201	0.2237	6.5421 H
475 C475	-2.4267	-1.4650	5.1329 C
476 H476	-0.4197	-2.0255	5.6659 H
477 H477	-2.8482	-2.4726	5.2329 H
478 H478	-2.1813	-1.3049	4.0780 H
479 H479	-3.2008	-0.7417	5.4148 H
480 O480	4.2244	0.9069	9.2325 O
481 H481	2.2470	0.4886	9.0206 H
482 C482	3.2867	0.3296	8.6707 C
483 C483	3.4251	-0.6181	7.4962 C
484 C484	4.8762	-0.7346	7.0121 C
485 H485	5.2319	0.2258	6.6225 H
486 H486	4.9572	-1.4809	6.2146 H
487 H487	5.5433	-1.0223	7.8300 H
488 C488	2.4494	-0.1962	6.3710 C
489 H489	3.0862	-1.6012	7.8700 H
490 H490	1.4207	-0.1061	6.7403 H
491 H491	2.4555	-0.9384	5.5662 H
492 H492	2.7446	0.7695	5.9441 H
@<TRIPOS>BOND
1 1 2 2
2 1 3 1
3 1 16 1
4 3 4 1
5 5 9 1
6 5 15 1
7 5 16 1
8 6 7 1
9 6 8 1
10 6 9 2
11 9 10 1
12 10 11 1
13 10 12 1
14 10 13 1
15 14 15 1
16 14 17 1
17 14 18 1
18 14 19 1
19 15 20 1
20 15 21 1
21 16 17 1
22 16 22 1
23 17 23 1
24 17 24 1
25 25 27 2
26 26 27 1
27 27 28 1
28 28 29 1
29 28 33 1
30 28 34 1
31 29 30 1
32 29 31 1
33 29 32 1
34 33 35 1
35 33 36 1
36 33 37 1
37 38 40 2
38 39 40 1
39 40 41 1
40 41 42 1
41 41 46 1
42 41 47 1
43 42 43 1
44 42 44 1
45 42 45 1
46 46 48 1
47 46 49 1
48 46 50 1
49 51 53 2
50 52 53 1
51 53 54 1
52 54 55 1
53 54 59 1
54 54 60 1
55 55 56 1
56 55 57 1
57 55 58 1
58 59 61 1
59 59 62 1
60 59 63 1
61 64 66 2
62 65 66 1
63 66 67 1
64 67 68 1
65 67 72 1
66 67 73 1
67 68 69 1
68 68 70 1
69 68 71 1
70 72 74 1
71 72 75 1
72 72 76 1
73 77 79 2
74 78 79 1
75 79 80 1
76 80 81 1
77 80 85 1
78 80 86 1
79 81 82 1
80 81 83 1
81 81 84 1
82 85 87 1
83 85 88 1
84 85 89 1
85 90 92 2
86 91 92 1
87 92 93 1
88 93 94 1
89 93 98 1
90 93 99 1
91 94 95 1
92 94 96 1
93 94 97 1
94 98 100 1
95 98 101 1
96 98 102 1
97 103 105 2
98 104 105 1
99 105 106 1
100 106 107 1
101 106 111 1
102 106 112 1
103 107 108 1
104 107 109 1
105 107 110 1
106 111 113 1
107 111 114 1
108 111 115 1
109 116 118 2
110 117 118 1
111 118 119 1
112 119 120 1
113 119 124 1
114 119 125 1
115 120 121 1
116 120 122 1
117 120 123 1
118 124 126 1
119 124 127 1
120 124 128 1
121 129 131 2
122 130 131 1
123 131 132 1
124 132 133 1
125 132 137 1
126 132 138 1
127 133 134 1
128 133 135 1
129 133 136 1
130 137 139 1
131 137 140 1
132 137 141 1
133 142 144 2
134 143 144 1
135 144 145 1
136 145 146 1
137 145 150 1
138 145 151 1
139 146 147 1
140 146 148 1
141 146 149 1
142 150 152 1
143 150 153 1
144 150 154 1
145 155 157 2
146 156 157 1
147 157 158 1
148 158 159 1
149 158 163 1
150 158 164 1
151 159 160 1
152 159 161 1
153 159 162 1
154 163 165 1
155 163 166 1
156 163 167 1
157 168 170 2
158 169 170 1
159 170 171 1
160 171 172 1
161 171 176 1
162 171 177 1
163 172 173 1
164 172 174 1
165 172 175 1
166 176 178 1
167 176 179 1
168 176 180 1
169 181 183 2
170 182 183 1
171 183 184 1
172 184 185 1
173 184 189 1
174 184 190 1
175 185 186 1
176 185 187 1
177 185 188 1
178 189 191 1
179 189 192 1
180 189 193 1
181 194 196 2
182 195 196 1
183 196 197 1
184 197 198 1
185 197 202 1
186 197 203 1
187 198 199 1
188 198 200 1
189 198 201 1
190 202 204 1
191 202 205 1
192 202 206 1
193 207 209 2
194 208 209 1
195 209 210 1
196 210 211 1
197 210 215 1
198 210 216 1
199 211 212 1
200 211 213 1
201 211 214 1
202 215 217 1
203 215 218 1
204 215 219 1
205 220 222 2
206 221 222 1
207 222 223 1
208 223 224 1
209 223 228 1
210 223 229 1
211 224 225 1
212 224 226 1
213 224 227 1
214 228 230 1
215 228 231 1
216 228 232 1
217 233 235 2
218 234 235 1
219 235 236 1
220 236 237 1
221 236 241 1
222 236 242 1
223 237 238 1
224 237 239 1
225 237 240 1
226 241 243 1
227 241 244 1
228 241 245 1
229 246 248 2
230 247 248 1
231 248 249 1
232 249 250 1
233 249 254 1
234 249 255 1
235 250 251 1
236 250 252 1
237 250 253 1
238 254 256 1
239 254 257 1
240 254 258 1
241 259 261 2
242 260 261 1
243 261 262 1
244 262 263 1
245 262 267 1
246 262 268 1
247 263 264 1
248 263 265 1
249 263 266 1
250 267 269 1
251 267 270 1
252 267 271 1
253 272 274 2
254 273 274 1
255 274 275 1
256 275 276 1
257 275 280 1
258 275 281 1
259 276 277 1
260 276 278 1
261 276 279 1
262 280 282 1
263 280 283 1
264 280 284 1
265 285 287 2
266 286 287 1
267 287 288 1
268 288 289 1
269 288 293 1
270 288 294 1
271 289 290 1
272 289 291 1
273 289 292 1
274 293 295 1
275 293 296 1
276 293 297 1
277 298 300 2
278 299 300 1
279 300 301 1
280 301 302 1
281 301 306 1
282 301 307 1
283 302 303 1
284 302 304 1
285 302 305 1
286 306 308 1
287 306 309 1
288 306 310 1
289 311 313 2
290 312 313 1
291 313 314 1
292 314 315 1
293 314 319 1
294 314 320 1
295 315 316 1
296 315 317 1
297 315 318 1
298 319 321 1
299 319 322 1
300 319 323 1
301 324 326 2
302 325 326 1
303 326 327 1
304 327 328 1
305 327 332 1
306 327 333 1
307 328 329 1
308 328 330 1
309 328 331 1
310 332 334 1
311 332 335 1
312 332 336 1
313 337 339 2
314 338 339 1
315 339 340 1
316 340 341 1
317 340 345 1
318 340 346 1
319 341 342 1
320 341 343 1
321 341 344 1
322 345 347 1
323 345 348 1
324 345 349 1
325 350 352 2
326 351 352 1
327 352 353 1
328 353 354 1
329 353 358 1
330 353 359 1
331 354 355 1
332 354 356 1
333 354 357 1
334 358 360 1
335 358 361 1
336 358 362 1
337 363 365 2
338 364 365 1
339 365 366 1
340 366 367 1
341 366 371 1
342 366 372 1
343 367 368 1
344 367 369 1
345 367 370 1
346 371 373 1
347 371 374 1
348 371 375 1
349 376 378 2
350 377 378 1
351 378 379 1
352 379 380 1
353 379 384 1
354 379 385 1
355 380 381 1
356 380 382 1
357 380 383 1
358 384 386 1
359 384 387 1
360 384 388 1
361 389 391 2
362 390 391 1
363 391 392 1
364 392 393 1
365 392 397 1
366 392 398 1
367 393 394 1
368 393 395 1
369 393 396 1
370 397 399 1
371 397 400 1
372 397 401 1
373 402 404 2
374 403 404 1
375 404 405 1
376 405 406 1
377 405 410 1
378 405 411 1
379 406 407 1
380 406 408 1
381 406 409 1
382 410 412 1
383 410 413 1
384 410 414 1
385 415 417 2
386 416 417 1
387 417 418 1
388 418 419 1
389 418 423 1
390 418 424 1
391 419 420 1
392 419 421 1
393 419 422 1
394 423 425 1
395 423 426 1
396 423 427 1
397 428 430 2
398 429 430 1
399 430 431 1
400 431 432 1
401 431 436 1
402 431 437 1
403 432 433 1
404 432 434 1
405 432 435 1
406 436 438 1
407 436 439 1
408 436 440 1
409 441 443 2
410 442 443 1
411 443 444 1
412 444 445 1
413 444 449 1
414 444 450 1
415 445 446 1
416 445 447 1
417 445 448 1
418 449 451 1
419 449 452 1
420 449 453 1
421 454 456 2
422 455 456 1
423 456 457 1
424 457 458 1
425 457 462 1
426 457 463 1
427 458 459 1
428 458 460 1
429 458 461 1
430 462 464 1
431 462 465 1
432 462 466 1
433 467 469 2
434 468 469 1
435 469 470 1
436 470 471 1
437 470 475 1
438 470 476 1
439 471 472 1
440 471 473 1
441 471 474 1
442 475 477 1
443 475 478 1
444 475 479 1
445 480 482 2
446 481 482 1
447 482 483 1
448 483 484 1
449 483 488 1
450 483 489 1
451 484 485 1
452 484 486 1
453 484 487 1
454 488 490 1
455 488 491 1
456 488 492 1
