@<TRIPOS>MOLECULE
Molecule Name
271 252
SMALL
NO_CHARGES

@<TRIPOS>ATOM
1 C1	0.0000	0.0000	0.0000 C
2 O2	-1.2352	0.0000	0.0000 O
3 O3	0.7399	1.1583	0.0000 O
4 H4	0.1638	1.9547	-0.0136 H
5 N5	0.3618	-2.3516	0.6968 N
6 C6	0.6236	-1.2327	2.8274 C
7 H7	1.0417	-0.3277	2.4033 H
8 H8	0.5098	-1.2549	3.9040 H
9 C9	0.2486	-2.3067	2.0853 C
10 C10	-0.3264	-3.5428	2.7432 C
11 H11	0.3266	-4.4148	2.6123 H
12 H12	-0.4488	-3.3745	3.8150 H
13 H13	-1.3053	-3.8042	2.3235 H
14 C14	0.9635	-3.2876	-1.3828 C
15 C15	0.0625	-3.5197	-0.1590 C
16 C16	0.9004	-1.2272	-0.0650 C
17 C17	0.9789	-1.7521	-1.5343 C
18 H18	1.9734	-3.6610	-1.1787 H
19 H19	0.5887	-3.7882	-2.2798 H
20 H20	0.2965	-4.4545	0.3543 H
21 H21	-0.9988	-3.5459	-0.4478 H
22 H22	1.8907	-0.9373	0.3079 H
23 H23	0.0972	-1.4225	-2.0955 H
24 H24	1.8674	-1.3764	-2.0462 H
25 O25	-1.3762	3.4588	0.7842 O
26 H26	-3.2175	3.1235	-0.0079 H
27 C27	-2.6074	3.5683	0.8037 C
28 C28	-3.4016	4.2840	1.8778 C
29 C29	-2.5074	4.8082	3.0089 C
30 H30	-2.0294	3.9776	3.5401 H
31 H31	-3.0969	5.3845	3.7299 H
32 H32	-1.7104	5.4474	2.6178 H
33 C33	-4.5345	3.3606	2.3879 C
34 H34	-3.8822	5.1385	1.3680 H
35 H35	-5.1535	2.9866	1.5634 H
36 H36	-5.1856	3.9059	3.0786 H
37 H37	-4.1200	2.4976	2.9221 H
38 O38	-0.7196	4.0473	0.3271 O
39 H39	-1.6762	3.3453	-1.3228 H
40 C40	-1.6996	3.9943	-0.4245 C
41 C41	-2.9898	4.7652	-0.2296 C
42 C42	-2.9875	5.5821	1.0690 C
43 H43	-2.9381	4.9209	1.9414 H
44 H44	-3.8982	6.1857	1.1456 H
45 H45	-2.1210	6.2482	1.1146 H
46 C46	-4.1931	3.7962	-0.3265 C
47 H47	-3.0547	5.4529	-1.0921 H
48 H48	-4.1690	3.2130	-1.2550 H
49 H49	-5.1334	4.3565	-0.3040 H
50 H50	-4.1953	3.0955	0.5166 H
51 O51	-1.0628	3.4983	-1.1924 O
52 H52	-0.9470	2.1644	-2.7213 H
53 C53	-1.0693	3.2170	-2.3962 C
54 C54	-1.2358	4.2161	-3.5235 C
55 C55	-1.4777	5.6401	-3.0063 C
56 H56	-2.4250	5.6965	-2.4586 H
57 H57	-1.5186	6.3503	-3.8391 H
58 H58	-0.6846	5.9506	-2.3199 H
59 C59	-2.3461	3.7312	-4.4871 C
60 H60	-0.2835	4.1891	-4.0834 H
61 H61	-2.1613	2.7076	-4.8347 H
62 H62	-2.3960	4.3824	-5.3658 H
63 H63	-3.3244	3.7525	-3.9929 H
64 O64	-1.0282	3.5411	-1.1694 O
65 H65	-1.6762	4.7222	0.3522 H
66 C66	-1.9181	4.1523	-0.5673 C
67 C67	-3.3751	4.2016	-0.9817 C
68 C68	-3.6290	3.4598	-2.3004 C
69 H69	-3.1005	3.9484	-3.1266 H
70 H70	-4.6987	3.4473	-2.5352 H
71 H71	-3.2699	2.4278	-2.2481 H
72 C72	-3.8546	5.6729	-1.0192 C
73 H73	-3.9293	3.6987	-0.1687 H
74 H74	-3.6524	6.1885	-0.0726 H
75 H75	-4.9330	5.7152	-1.2031 H
76 H76	-3.3515	6.2241	-1.8223 H
77 O77	0.5705	4.0191	0.9038 O
78 H78	-0.2873	5.1430	-0.5561 H
79 C79	0.0937	5.0792	0.4829 C
80 C80	-0.0269	6.3595	1.2848 C
81 C81	0.4451	6.1835	2.7340 C
82 H82	-0.1984	5.4742	3.2665 H
83 H83	0.4178	7.1401	3.2665 H
84 H84	1.4653	5.7906	2.7718 H
85 C85	-1.4744	6.8990	1.1868 C
86 H86	0.6282	7.0888	0.7748 H
87 H87	-1.7967	7.0052	0.1439 H
88 H88	-1.5455	7.8818	1.6639 H
89 H89	-2.1745	6.2245	1.6934 H
90 O90	0.6462	3.7275	1.3680 O
91 H91	1.3287	4.2178	3.2184 H
92 C92	0.4823	4.1888	2.5031 C
93 C93	-0.8223	4.7446	3.0378 C
94 C94	-1.9304	4.7474	1.9768 C
95 H95	-1.6730	5.4202	1.1511 H
96 H96	-2.8784	5.0824	2.4112 H
97 H97	-2.0729	3.7493	1.5524 H
98 C98	-0.5771	6.1438	3.6529 C
99 H99	-1.1119	4.0711	3.8647 H
100 H100	0.2266	6.1226	4.3987 H
101 H101	-1.4855	6.5054	4.1455 H
102 H102	-0.3022	6.8661	2.8754 H
103 O103	-1.3092	3.5294	0.7823 O
104 H104	-1.0785	3.4228	2.7986 H
105 C105	-1.0934	4.0481	1.8834 C
106 C106	-0.8351	5.5232	2.1161 C
107 C107	-0.7920	6.3189	0.8051 C
108 H108	0.0511	5.9957	0.1844 H
109 H109	-0.6798	7.3894	1.0081 H
110 H110	-1.7044	6.1670	0.2211 H
111 C111	0.4466	5.6980	2.9663 C
112 H112	-1.6837	5.8773	2.7290 H
113 H113	0.4011	5.1115	3.8919 H
114 H114	0.5796	6.7498	3.2392 H
115 H115	1.3315	5.3790	2.4032 H
116 O116	-0.4385	3.1955	-1.8496 O
117 H117	-0.6427	1.2563	-2.4223 H
118 C118	-0.3293	2.2875	-2.6813 C
119 C119	0.2163	2.4531	-4.0855 C
120 C120	0.5585	3.9136	-4.4069 C
121 H121	-0.3451	4.5333	-4.3976 H
122 H122	1.0196	3.9920	-5.3973 H
123 H123	1.2474	4.3298	-3.6660 H
124 C124	-0.7707	1.8305	-5.1026 C
125 H125	1.1402	1.8477	-4.1154 H
126 H126	-1.0122	0.7915	-4.8479 H
127 H127	-0.3353	1.8394	-6.1071 H
128 H128	-1.7065	2.4007	-5.1333 H
129 O129	0.9084	3.6229	1.3794 O
130 H130	2.8134	3.7744	0.6878 H
131 C131	2.1324	3.5343	1.5288 C
132 C132	2.8256	3.1101	2.8080 C
133 C133	1.8336	2.8678	3.9530 C
134 H134	1.3212	3.7977	4.2237 H
135 H135	2.3541	2.4907	4.8399 H
136 H136	1.0659	2.1443	3.6635 H
137 C137	3.9209	4.1418	3.1716 C
138 H138	3.3385	2.1622	2.5642 H
139 H139	4.6112	4.3101	2.3362 H
140 H140	4.5057	3.7879	4.0268 H
141 H141	3.4718	5.1044	3.4426 H
142 O142	-1.0678	2.9589	1.6444 O
143 H143	-0.0231	2.9163	3.3871 H
144 C144	-0.6278	3.5006	2.6647 C
145 C145	-0.8434	4.9523	3.0427 C
146 C146	-1.6194	5.7232	1.9670 C
147 H147	-1.0435	5.7732	1.0362 H
148 H148	-1.8255	6.7461	2.2998 H
149 H149	-2.5693	5.2316	1.7371 H
150 C150	0.5167	5.6069	3.3860 C
151 H151	-1.4381	4.9286	3.9737 H
152 H152	1.0608	5.0339	4.1466 H
153 H153	0.3629	6.6197	3.7720 H
154 H154	1.1496	5.6763	2.4935 H
155 O155	3.3839	-3.1430	0.6341 O
156 H156	3.7503	-1.3848	1.5852 H
157 C157	3.9390	-2.4748	1.5136 C
158 C158	4.8964	-3.0246	2.5517 C
159 C159	5.0543	-4.5470	2.4474 C
160 H160	4.1059	-5.0499	2.6672 H
161 H161	5.8069	-4.9056	3.1578 H
162 H162	5.3553	-4.8443	1.4386 H
163 C163	4.4547	-2.5626	3.9616 C
164 H164	5.8680	-2.5426	2.3402 H
165 H165	4.3351	-1.4736	4.0113 H
166 H166	5.2012	-2.8548	4.7071 H
167 H167	3.4996	-3.0238	4.2389 H
168 O168	1.2582	3.6074	-1.1725 O
169 H169	2.8747	4.8389	-1.1991 H
170 C170	1.7752	4.7249	-1.2822 C
171 C171	1.0187	6.0144	-1.5308 C
172 C172	-0.4863	5.7786	-1.7130 C
173 H173	-0.6778	5.1803	-2.6108 H
174 H174	-1.0156	6.7320	-1.8151 H
175 H175	-0.9063	5.2342	-0.8622 H
176 C176	1.6562	6.7688	-2.7227 C
177 H177	1.1839	6.6308	-0.6287 H
178 H178	2.7335	6.9155	-2.5788 H
179 H179	1.1937	7.7543	-2.8383 H
180 H180	1.5092	6.2133	-3.6562 H
181 O181	-0.1995	-5.0986	-3.9965 O
182 H182	0.7946	-4.4927	-5.6623 H
183 C183	-0.0627	-5.0418	-5.2238 C
184 C184	-0.9948	-5.6789	-6.2348 C
185 C185	-2.1135	-6.4868	-5.5646 C
186 H186	-1.6985	-7.3373	-5.0124 H
187 H187	-2.8129	-6.8714	-6.3146 H
188 H188	-2.6694	-5.8732	-4.8495 H
189 C189	-0.1720	-6.5162	-7.2438 C
190 H190	-1.4396	-4.8372	-6.7958 H
191 H191	0.6298	-5.9244	-7.7016 H
192 H192	-0.8191	-6.8857	-8.0459 H
193 H193	0.2829	-7.3821	-6.7488 H
194 O194	-5.8641	3.8911	0.2900 O
195 H195	-5.2949	3.9118	2.2408 H
196 C196	-5.1740	3.4771	1.2283 C
197 C197	-4.1306	2.3828	1.1260 C
198 C198	-4.0670	1.7708	-0.2794 C
199 H199	-5.0078	1.2652	-0.5237 H
200 H200	-3.2554	1.0381	-0.3438 H
201 H201	-3.9040	2.5416	-1.0384 H
202 C202	-4.3768	1.3258	2.2298 C
203 H203	-3.1668	2.8732	1.3533 H
204 H204	-4.4318	1.7849	3.2243 H
205 H205	-3.5636	0.5930	2.2407 H
206 H206	-5.3153	0.7887	2.0495 H
207 O207	-5.2921	4.1501	0.4187 O
208 H208	-5.2229	3.1671	-1.3587 H
209 C209	-4.7202	3.4281	-0.4058 C
210 C210	-3.3351	2.8374	-0.2344 C
211 C211	-2.6643	3.2983	1.0661 C
212 H212	-2.4921	4.3803	1.0498 H
213 H213	-1.6992	2.7980	1.1998 H
214 H214	-3.2944	3.0811	1.9336 H
215 C215	-2.4820	3.1415	-1.4897 C
216 H216	-3.4844	1.7431	-0.1989 H
217 H217	-2.9845	2.8164	-2.4087 H
218 H218	-1.5201	2.6222	-1.4289 H
219 H219	-2.2827	4.2164	-1.5717 H
220 O220	-3.1981	-4.0357	-0.8937 O
221 H221	-3.6395	-4.2571	1.0776 H
222 C222	-3.9963	-4.2377	0.0283 C
223 C223	-5.4838	-4.4721	-0.1426 C
224 C224	-5.9254	-4.3558	-1.6072 C
225 H225	-5.7724	-3.3359	-1.9771 H
226 H226	-6.9872	-4.6039	-1.7099 H
227 H227	-5.3456	-5.0261	-2.2486 H
228 C228	-6.2698	-3.5265	0.7978 C
229 H229	-5.6613	-5.5042	0.2102 H
230 H230	-5.9303	-3.6156	1.8368 H
231 H231	-7.3377	-3.7661	0.7696 H
232 H232	-6.1480	-2.4822	0.4873 H
233 O233	-6.7296	-1.9497	1.2305 O
234 H234	-6.2065	-1.3490	3.1001 H
235 C235	-5.8970	-1.5599	2.0568 C
236 C236	-4.4264	-1.3313	1.7707 C
237 C237	-4.0481	-1.7144	0.3341 C
238 H238	-4.1871	-2.7890	0.1713 H
239 H239	-2.9998	-1.4685	0.1335 H
240 H240	-4.6759	-1.1903	-0.3924 H
241 C241	-3.5709	-2.0647	2.8320 C
242 H242	-4.2640	-0.2476	1.9131 H
243 H243	-3.8656	-1.7871	3.8513 H
244 H244	-2.5130	-1.8128	2.7059 H
245 H245	-3.6754	-3.1513	2.7306 H
246 O246	-5.8522	0.4082	-4.6060 O
247 H247	-5.2188	-1.5014	-4.8924 H
248 C248	-5.1303	-0.5545	-4.3230 C
249 C249	-4.0878	-0.5683	-3.2231 C
250 C250	-3.9610	0.7926	-2.5263 C
251 H251	-3.5988	1.5533	-3.2269 H
252 H252	-3.2572	0.7324	-1.6893 H
253 H253	-4.9287	1.1331	-2.1463 H
254 C254	-2.7413	-1.0793	-3.7906 C
255 H255	-4.4401	-1.3194	-2.4933 H
256 H256	-2.8560	-2.0462	-4.2954 H
257 H257	-2.0129	-1.2044	-2.9829 H
258 H258	-2.3285	-0.3645	-4.5120 H
259 O259	-2.1786	-1.4894	-2.4038 O
260 H260	-3.6551	-1.7205	-1.0266 H
261 C261	-3.2762	-1.9319	-2.0467 C
262 C262	-4.1978	-2.7740	-2.9061 C
263 C263	-3.6527	-2.9647	-4.3274 C
264 H264	-3.6012	-2.0050	-4.8536 H
265 H265	-4.2996	-3.6374	-4.9006 H
266 H266	-2.6416	-3.3819	-4.3096 H
267 C267	-5.6226	-2.1693	-2.8862 C
268 H268	-4.2533	-3.7561	-2.4027 H
269 H269	-5.9882	-2.0291	-1.8617 H
270 H270	-6.3223	-2.8311	-3.4068 H
271 H271	-5.6375	-1.1958	-3.3901 H
@<TRIPOS>BOND
1 1 2 2
2 1 3 1
3 1 16 1
4 3 4 1
5 5 9 1
6 5 15 1
7 5 16 1
8 6 7 1
9 6 8 1
10 6 9 2
11 9 10 1
12 10 11 1
13 10 12 1
14 10 13 1
15 14 15 1
16 14 17 1
17 14 18 1
18 14 19 1
19 15 20 1
20 15 21 1
21 16 17 1
22 16 22 1
23 17 23 1
24 17 24 1
25 25 27 2
26 26 27 1
27 27 28 1
28 28 29 1
29 28 33 1
30 28 34 1
31 29 30 1
32 29 31 1
33 29 32 1
34 33 35 1
35 33 36 1
36 33 37 1
37 38 40 2
38 39 40 1
39 40 41 1
40 41 42 1
41 41 46 1
42 41 47 1
43 42 43 1
44 42 44 1
45 42 45 1
46 46 48 1
47 46 49 1
48 46 50 1
49 51 53 2
50 52 53 1
51 53 54 1
52 54 55 1
53 54 59 1
54 54 60 1
55 55 56 1
56 55 57 1
57 55 58 1
58 59 61 1
59 59 62 1
60 59 63 1
61 64 66 2
62 65 66 1
63 66 67 1
64 67 68 1
65 67 72 1
66 67 73 1
67 68 69 1
68 68 70 1
69 68 71 1
70 72 74 1
71 72 75 1
72 72 76 1
73 77 79 2
74 78 79 1
75 79 80 1
76 80 81 1
77 80 85 1
78 80 86 1
79 81 82 1
80 81 83 1
81 81 84 1
82 85 87 1
83 85 88 1
84 85 89 1
85 90 92 2
86 91 92 1
87 92 93 1
88 93 94 1
89 93 98 1
90 93 99 1
91 94 95 1
92 94 96 1
93 94 97 1
94 98 100 1
95 98 101 1
96 98 102 1
97 103 105 2
98 104 105 1
99 105 106 1
100 106 107 1
101 106 111 1
102 106 112 1
103 107 108 1
104 107 109 1
105 107 110 1
106 111 113 1
107 111 114 1
108 111 115 1
109 116 118 2
110 117 118 1
111 118 119 1
112 119 120 1
113 119 124 1
114 119 125 1
115 120 121 1
116 120 122 1
117 120 123 1
118 124 126 1
119 124 127 1
120 124 128 1
121 129 131 2
122 130 131 1
123 131 132 1
124 132 133 1
125 132 137 1
126 132 138 1
127 133 134 1
128 133 135 1
129 133 136 1
130 137 139 1
131 137 140 1
132 137 141 1
133 142 144 2
134 143 144 1
135 144 145 1
136 145 146 1
137 145 150 1
138 145 151 1
139 146 147 1
140 146 148 1
141 146 149 1
142 150 152 1
143 150 153 1
144 150 154 1
145 155 157 2
146 156 157 1
147 157 158 1
148 158 159 1
149 158 163 1
150 158 164 1
151 159 160 1
152 159 161 1
153 159 162 1
154 163 165 1
155 163 166 1
156 163 167 1
157 168 170 2
158 169 170 1
159 170 171 1
160 171 172 1
161 171 176 1
162 171 177 1
163 172 173 1
164 172 174 1
165 172 175 1
166 176 178 1
167 176 179 1
168 176 180 1
169 181 183 2
170 182 183 1
171 183 184 1
172 184 185 1
173 184 189 1
174 184 190 1
175 185 186 1
176 185 187 1
177 185 188 1
178 189 191 1
179 189 192 1
180 189 193 1
181 194 196 2
182 195 196 1
183 196 197 1
184 197 198 1
185 197 202 1
186 197 203 1
187 198 199 1
188 198 200 1
189 198 201 1
190 202 204 1
191 202 205 1
192 202 206 1
193 207 209 2
194 208 209 1
195 209 210 1
196 210 211 1
197 210 215 1
198 210 216 1
199 211 212 1
200 211 213 1
201 211 214 1
202 215 217 1
203 215 218 1
204 215 219 1
205 220 222 2
206 221 222 1
207 222 223 1
208 223 224 1
209 223 228 1
210 223 229 1
211 224 225 1
212 224 226 1
213 224 227 1
214 228 230 1
215 228 231 1
216 228 232 1
217 233 235 2
218 234 235 1
219 235 236 1
220 236 237 1
221 236 241 1
222 236 242 1
223 237 238 1
224 237 239 1
225 237 240 1
226 241 243 1
227 241 244 1
228 241 245 1
229 246 248 2
230 247 248 1
231 248 249 1
232 249 250 1
233 249 254 1
234 249 255 1
235 250 251 1
236 250 252 1
237 250 253 1
238 254 256 1
239 254 257 1
240 254 258 1
241 259 261 2
242 260 261 1
243 261 262 1
244 262 263 1
245 262 267 1
246 262 268 1
247 263 264 1
248 263 265 1
249 263 266 1
250 267 269 1
251 267 270 1
252 267 271 1
