@<TRIPOS>MOLECULE
Molecule Name
284 264
SMALL
NO_CHARGES

@<TRIPOS>ATOM
1 C1	0.0000	0.0000	0.0000 C
2 O2	-1.2332	0.0000	0.0000 O
3 O3	0.7374	1.1654	0.0000 O
4 H4	0.1401	1.9432	-0.0498 H
5 N5	2.0217	-1.2089	-0.8451 N
6 C6	0.6402	-1.2006	-2.8342 C
7 H7	-0.2982	-1.2451	-2.2967 H
8 H8	0.5756	-1.1894	-3.9147 H
9 C9	3.1256	-1.0946	-3.0472 C
10 H10	3.7565	-1.9800	-2.8947 H
11 H11	2.8838	-1.0353	-4.1103 H
12 H12	3.7265	-0.2143	-2.7864 H
13 C13	2.9928	-1.7597	1.2196 C
14 C14	3.2999	-1.0830	-0.1264 C
15 C15	0.8816	-1.2421	0.0679 C
16 C16	1.5208	-1.3745	1.4894 C
17 H17	3.0916	-2.8465	1.1176 H
18 H18	3.6613	-1.4292	2.0203 H
19 H19	4.1057	-1.5849	-0.6669 H
20 H20	3.5865	-0.0290	0.0175 H
21 H21	0.2239	-2.0882	-0.1654 H
22 H22	1.4754	-0.4122	2.0097 H
23 H23	0.9896	-2.1113	2.0972 H
24 C24	1.8530	-1.1651	-2.2317 C
25 O25	-1.3263	3.2726	-1.2188 O
26 H26	-2.2805	1.7154	-2.1102 H
27 C27	-2.3273	2.7541	-1.7259 C
28 C28	-3.6748	3.4301	-1.8812 C
29 C29	-3.6952	4.8334	-1.2615 C
30 H30	-3.5481	4.7791	-0.1770 H
31 H31	-4.6544	5.3255	-1.4546 H
32 H32	-2.8936	5.4564	-1.6689 H
33 C33	-4.7851	2.5098	-1.3188 C
34 H34	-3.8393	3.5111	-2.9709 H
35 H35	-4.7451	1.5086	-1.7648 H
36 H36	-5.7720	2.9342	-1.5300 H
37 H37	-4.6869	2.4036	-0.2322 H
38 O38	-1.1318	3.3959	1.1985 O
39 H39	0.0652	4.9496	1.7308 H
40 C40	-0.8671	4.3757	1.9043 C
41 C41	-1.7320	4.8935	3.0360 C
42 C42	-3.0409	4.1054	3.1737 C
43 H43	-3.6647	4.2333	2.2820 H
44 H44	-3.6089	4.4516	4.0439 H
45 H45	-2.8470	3.0346	3.2856 H
46 C46	-1.9630	6.4139	2.8589 C
47 H47	-1.1286	4.7600	3.9521 H
48 H48	-1.0164	6.9568	2.7493 H
49 H49	-2.4871	6.8213	3.7294 H
50 H50	-2.5748	6.6120	1.9711 H
51 O51	0.1000	3.7383	1.3852 O
52 H52	-1.1044	4.9699	0.3070 H
53 C53	-0.4360	4.8333	1.1806 C
54 C54	-0.2612	6.0644	2.0470 C
55 C55	0.6108	5.7885	3.2787 C
56 H56	0.1252	5.0635	3.9414 H
57 H57	0.7816	6.7110	3.8439 H
58 H58	1.5795	5.3698	2.9907 H
59 C59	-1.6495	6.6434	2.4124 C
60 H60	0.2430	6.8078	1.4033 H
61 H61	-2.2613	6.8211	1.5197 H
62 H62	-1.5357	7.5965	2.9390 H
63 H63	-2.1954	5.9560	3.0690 H
64 O64	-1.4145	-3.5322	0.5501 O
65 H65	-3.2315	-3.1849	-0.2912 H
66 C66	-2.6480	-3.6121	0.5489 C
67 C67	-3.4798	-4.2673	1.6332 C
68 C68	-2.6115	-4.9053	2.7252 C
69 H69	-2.0153	-5.7275	2.3137 H
70 H70	-3.2374	-5.3035	3.5310 H
71 H71	-1.9142	-4.1775	3.1505 H
72 C72	-4.4709	-5.2694	0.9930 C
73 H73	-4.0806	-3.4523	2.0759 H
74 H74	-5.0723	-4.7971	0.2069 H
75 H75	-5.1553	-5.6623	1.7518 H
76 H76	-3.9337	-6.1159	0.5496 H
77 O77	-0.4902	-4.2054	0.3687 O
78 H78	-0.5603	-5.8082	-0.8789 H
79 C79	-1.1101	-5.0685	-0.2630 C
80 C80	-2.6178	-5.2221	-0.2788 C
81 C81	-3.3132	-4.2202	0.6519 C
82 H82	-3.0375	-4.4068	1.6959 H
83 H83	-4.4016	-4.3036	0.5630 H
84 H84	-3.0202	-3.1930	0.4156 H
85 C85	-2.9932	-6.6910	0.0333 C
86 H86	-2.9228	-5.0221	-1.3219 H
87 H87	-2.4761	-7.3912	-0.6339 H
88 H88	-4.0707	-6.8409	-0.0895 H
89 H89	-2.7306	-6.9470	1.0664 H
90 O90	5.3224	1.2884	-2.0861 O
91 H91	6.9488	2.2864	-1.3868 H
92 C92	5.8447	2.2053	-1.4421 C
93 C93	5.0889	3.2792	-0.6855 C
94 C94	3.5703	3.1564	-0.8654 C
95 H95	3.2905	3.3211	-1.9119 H
96 H96	3.0486	3.8963	-0.2489 H
97 H97	3.2193	2.1584	-0.5868 H
98 C98	5.6294	4.6736	-1.0851 C
99 H99	5.3431	3.1236	0.3785 H
100 H100	6.7173	4.7363	-0.9616 H
101 H101	5.1735	5.4495	-0.4615 H
102 H102	5.3913	4.8961	-2.1318 H
103 O103	-1.6101	-3.1097	0.7737 O
104 H104	-2.1015	-1.7526	2.2044 H
105 C105	-2.2762	-2.7487	1.7505 C
106 C106	-3.3585	-3.5720	2.4196 C
107 C107	-3.6043	-4.9035	1.6984 C
108 H108	-3.9887	-4.7301	0.6871 H
109 H109	-4.3353	-5.5084	2.2456 H
110 H110	-2.6777	-5.4769	1.6015 H
111 C111	-4.6437	-2.7213	2.5631 C
112 H112	-2.9856	-3.7742	3.4400 H
113 H113	-4.4441	-1.7690	3.0691 H
114 H114	-5.3936	-3.2638	3.1479 H
115 H115	-5.0746	-2.5013	1.5794 H
116 O116	5.1989	-3.7704	-2.9242 O
117 H117	6.0066	-4.9514	-1.4810 H
118 C118	5.7644	-4.8050	-2.5527 C
119 C119	6.1781	-5.9459	-3.4605 C
120 C120	5.7462	-5.7167	-4.9146 C
121 H121	4.6536	-5.6958	-4.9946 H
122 H122	6.1234	-6.5180	-5.5590 H
123 H123	6.1195	-4.7597	-5.2910 H
124 C124	5.6559	-7.2839	-2.8834 C
125 H125	7.2815	-5.9772	-3.4092 H
126 H126	5.9644	-7.4223	-1.8401 H
127 H127	6.0459	-8.1253	-3.4653 H
128 H128	4.5610	-7.3222	-2.9236 H
129 O129	5.8785	-2.7879	-2.5373 O
130 H130	6.7669	-3.2951	-0.7813 H
131 C131	6.8726	-3.0820	-1.8639 C
132 C132	8.2873	-3.1847	-2.3977 C
133 C133	8.3542	-2.9552	-3.9131 C
134 H134	7.8102	-3.7420	-4.4475 H
135 H135	9.3938	-2.9603	-4.2577 H
136 H136	7.8989	-1.9992	-4.1879 H
137 C137	8.9074	-4.5363	-1.9678 C
138 H138	8.8543	-2.3877	-1.8835 H
139 H139	8.8379	-4.6867	-0.8837 H
140 H140	9.9654	-4.5734	-2.2467 H
141 H141	8.3968	-5.3714	-2.4616 H
142 O142	0.9624	3.1908	1.6964 O
143 H143	1.2351	5.1071	2.3160 H
144 C144	1.3373	4.0240	2.5291 C
145 C145	1.9513	3.6954	3.8751 C
146 C146	1.9933	2.1850	4.1408 C
147 H147	0.9790	1.7753	4.2037 H
148 H148	2.5090	1.9742	5.0838 H
149 H149	2.5093	1.6565	3.3338 H
150 C150	1.2141	4.4798	4.9874 C
151 H151	2.9841	4.0859	3.8304 H
152 H152	1.1840	5.5548	4.7722 H
153 H153	1.7211	4.3418	5.9479 H
154 H154	0.1827	4.1240	5.0940 H
155 O155	-6.5338	-0.4295	3.4771 O
156 H156	-6.5954	1.2475	2.3307 H
157 C157	-6.1603	0.2439	2.5100 C
158 C158	-5.1175	-0.1877	1.4986 C
159 C159	-4.4999	-1.5484	1.8459 C
160 H160	-3.9473	-1.4922	2.7905 H
161 H161	-3.8072	-1.8686	1.0603 H
162 H162	-5.2725	-2.3137	1.9648 H
163 C163	-4.0573	0.9287	1.3375 C
164 H164	-5.6558	-0.2672	0.5368 H
165 H165	-4.5198	1.8949	1.1025 H
166 H166	-3.3650	0.6795	0.5268 H
167 H167	-3.4738	1.0446	2.2584 H
168 O168	3.7094	-1.2983	4.3134 O
169 H169	4.0254	-0.0043	5.8483 H
170 C170	4.0403	-1.0490	5.4781 C
171 C171	4.4850	-2.0790	6.4970 C
172 C172	4.4094	-3.5094	5.9476 C
173 H173	3.3719	-3.7842	5.7267 H
174 H174	4.8069	-4.2234	6.6769 H
175 H175	4.9777	-3.6056	5.0178 H
176 C176	3.6792	-1.8959	7.8060 C
177 H177	5.5377	-1.8319	6.7249 H
178 H178	3.7356	-0.8645	8.1747 H
179 H179	4.0705	-2.5556	8.5871 H
180 H180	2.6232	-2.1450	7.6490 H
181 O181	-4.8817	3.1764	3.3567 O
182 H182	-5.7423	3.1033	1.5171 H
183 C183	-4.9296	2.7665	2.1914 C
184 C184	-3.9404	1.8043	1.5649 C
185 C185	-2.7999	1.4382	2.5235 C
186 H186	-2.1972	2.3216	2.7622 H
187 H187	-2.1443	0.6858	2.0722 H
188 H188	-3.1886	1.0435	3.4668 H
189 C189	-3.4328	2.3830	0.2219 C
190 H190	-4.5232	0.8957	1.3289 H
191 H191	-4.2630	2.6500	-0.4430 H
192 H192	-2.8087	1.6474	-0.2957 H
193 H193	-2.8284	3.2819	0.3911 H
194 O194	-5.5859	-2.7699	3.1430 O
195 H195	-3.9499	-2.1131	4.1542 H
196 C196	-4.4447	-2.2960	3.1792 C
197 C197	-3.6170	-1.9234	1.9656 C
198 C198	-4.3256	-2.2722	0.6503 C
199 H199	-4.4590	-3.3560	0.5589 H
200 H200	-3.7394	-1.9240	-0.2068 H
201 H201	-5.3187	-1.8159	0.6040 H
202 C202	-2.2124	-2.5641	2.0785 C
203 H203	-3.4818	-0.8284	2.0268 H
204 H204	-1.7288	-2.3133	3.0304 H
205 H205	-1.5677	-2.2086	1.2683 H
206 H206	-2.2776	-3.6560	2.0061 H
207 O207	-3.5478	5.6447	-3.3858 O
208 H208	-3.1809	3.6687	-3.6877 H
209 C209	-3.3320	4.5004	-2.9707 C
210 C210	-3.2496	4.1045	-1.5101 C
211 C211	-3.3894	5.3110	-0.5728 C
212 H212	-2.5521	6.0046	-0.7081 H
213 H213	-3.4020	4.9863	0.4732 H
214 H214	-4.3095	5.8658	-0.7783 H
215 C215	-1.9504	3.3002	-1.2627 C
216 H216	-4.0968	3.4146	-1.3442 H
217 H217	-1.8634	2.4506	-1.9509 H
218 H218	-1.9357	2.9093	-0.2402 H
219 H219	-1.0687	3.9381	-1.3949 H
220 O220	5.3257	0.1288	2.3202 O
221 H221	4.8844	-0.4524	4.2169 H
222 C222	5.4621	0.2144	3.5459 C
223 C223	6.3843	1.1864	4.2542 C
224 C224	7.2104	2.0248	3.2703 C
225 H225	7.8889	1.3865	2.6934 H
226 H226	7.8098	2.7681	3.8068 H
227 H227	6.5651	2.5447	2.5561 H
228 C228	7.2619	0.4202	5.2735 C
229 H229	5.7200	1.8537	4.8326 H
230 H230	6.6535	-0.1825	5.9586 H
231 H231	7.8483	1.1241	5.8729 H
232 H232	7.9597	-0.2496	4.7576 H
233 O233	-2.4439	-6.3850	0.9077 O
234 H234	-2.0702	-6.1674	-1.0781 H
235 C235	-2.1126	-5.7063	-0.0710 C
236 C236	-1.7415	-4.2375	-0.0274 C
237 C237	-1.8950	-3.6414	1.3779 C
238 H238	-2.9442	-3.6604	1.6933 H
239 H239	-1.5490	-2.6024	1.3952 H
240 H240	-1.3225	-4.2134	2.1139 H
241 C241	-2.5505	-3.4657	-1.0979 C
242 H242	-0.6789	-4.1936	-0.3273 H
243 H243	-2.4378	-3.9151	-2.0920 H
244 H244	-2.2081	-2.4275	-1.1559 H
245 H245	-3.6175	-3.4576	-0.8461 H
246 O246	-2.3697	2.6750	-6.2481 O
247 H247	-0.6119	3.5954	-5.8086 H
248 C248	-1.3481	2.8035	-5.5640 C
249 C249	-0.9862	1.9453	-4.3685 C
250 C250	-2.0798	0.9219	-4.0362 C
251 H251	-3.0027	1.4278	-3.7312 H
252 H252	-1.7592	0.2678	-3.2183 H
253 H253	-2.3188	0.3033	-4.9062 H
254 C254	-0.6293	2.8533	-3.1667 C
255 H255	-0.0636	1.4108	-4.6586 H
256 H256	0.1442	3.5854	-3.4286 H
257 H257	-0.2546	2.2495	-2.3339 H
258 H258	-1.5131	3.4004	-2.8184 H
259 O259	-1.6322	4.7300	-3.0052 O
260 H260	-1.9187	2.9604	-2.0478 H
261 C261	-1.3920	3.5286	-2.8406 C
262 C262	-0.4026	2.7184	-3.6539 C
263 C263	0.2335	3.5412	-4.7817 C
264 H264	-0.5242	3.8467	-5.5119 H
265 H265	0.9971	2.9541	-5.3030 H
266 H266	0.6975	4.4521	-4.3922 H
267 C267	-1.0856	1.4269	-4.1655 C
268 H268	0.3829	2.4110	-2.9401 H
269 H269	-1.5447	0.8604	-3.3463 H
270 H270	-0.3515	0.7784	-4.6545 H
271 H271	-1.8676	1.6653	-4.8958 H
272 O272	-5.8786	-2.9011	-2.7502 O
273 H273	-4.5880	-2.2455	-1.3238 H
274 C274	-4.7565	-2.5385	-2.3795 C
275 C275	-3.5315	-2.4511	-3.2675 C
276 C276	-3.8118	-2.9427	-4.6935 C
277 H277	-4.0640	-4.0090	-4.6920 H
278 H278	-2.9327	-2.7976	-5.3304 H
279 H279	-4.6572	-2.4079	-5.1362 H
280 C280	-2.3507	-3.1951	-2.5978 C
281 H281	-3.2661	-1.3789	-3.2978 H
282 H282	-2.1753	-2.8383	-1.5757 H
283 H283	-1.4313	-3.0408	-3.1718 H
284 H284	-2.5466	-4.2729	-2.5541 H
@<TRIPOS>BOND
1 1 2 2
2 1 3 1
3 1 15 1
4 3 4 1
5 5 14 1
6 5 15 1
7 5 24 1
8 6 7 1
9 6 8 1
10 6 24 2
11 9 10 1
12 9 11 1
13 9 12 1
14 9 24 1
15 13 14 1
16 13 16 1
17 13 17 1
18 13 18 1
19 14 19 1
20 14 20 1
21 15 16 1
22 15 21 1
23 16 22 1
24 16 23 1
25 25 27 2
26 26 27 1
27 27 28 1
28 28 29 1
29 28 33 1
30 28 34 1
31 29 30 1
32 29 31 1
33 29 32 1
34 33 35 1
35 33 36 1
36 33 37 1
37 38 40 2
38 39 40 1
39 40 41 1
40 41 42 1
41 41 46 1
42 41 47 1
43 42 43 1
44 42 44 1
45 42 45 1
46 46 48 1
47 46 49 1
48 46 50 1
49 51 53 2
50 52 53 1
51 53 54 1
52 54 55 1
53 54 59 1
54 54 60 1
55 55 56 1
56 55 57 1
57 55 58 1
58 59 61 1
59 59 62 1
60 59 63 1
61 64 66 2
62 65 66 1
63 66 67 1
64 67 68 1
65 67 72 1
66 67 73 1
67 68 69 1
68 68 70 1
69 68 71 1
70 72 74 1
71 72 75 1
72 72 76 1
73 77 79 2
74 78 79 1
75 79 80 1
76 80 81 1
77 80 85 1
78 80 86 1
79 81 82 1
80 81 83 1
81 81 84 1
82 85 87 1
83 85 88 1
84 85 89 1
85 90 92 2
86 91 92 1
87 92 93 1
88 93 94 1
89 93 98 1
90 93 99 1
91 94 95 1
92 94 96 1
93 94 97 1
94 98 100 1
95 98 101 1
96 98 102 1
97 103 105 2
98 104 105 1
99 105 106 1
100 106 107 1
101 106 111 1
102 106 112 1
103 107 108 1
104 107 109 1
105 107 110 1
106 111 113 1
107 111 114 1
108 111 115 1
109 116 118 2
110 117 118 1
111 118 119 1
112 119 120 1
113 119 124 1
114 119 125 1
115 120 121 1
116 120 122 1
117 120 123 1
118 124 126 1
119 124 127 1
120 124 128 1
121 129 131 2
122 130 131 1
123 131 132 1
124 132 133 1
125 132 137 1
126 132 138 1
127 133 134 1
128 133 135 1
129 133 136 1
130 137 139 1
131 137 140 1
132 137 141 1
133 142 144 2
134 143 144 1
135 144 145 1
136 145 146 1
137 145 150 1
138 145 151 1
139 146 147 1
140 146 148 1
141 146 149 1
142 150 152 1
143 150 153 1
144 150 154 1
145 155 157 2
146 156 157 1
147 157 158 1
148 158 159 1
149 158 163 1
150 158 164 1
151 159 160 1
152 159 161 1
153 159 162 1
154 163 165 1
155 163 166 1
156 163 167 1
157 168 170 2
158 169 170 1
159 170 171 1
160 171 172 1
161 171 176 1
162 171 177 1
163 172 173 1
164 172 174 1
165 172 175 1
166 176 178 1
167 176 179 1
168 176 180 1
169 181 183 2
170 182 183 1
171 183 184 1
172 184 185 1
173 184 189 1
174 184 190 1
175 185 186 1
176 185 187 1
177 185 188 1
178 189 191 1
179 189 192 1
180 189 193 1
181 194 196 2
182 195 196 1
183 196 197 1
184 197 198 1
185 197 202 1
186 197 203 1
187 198 199 1
188 198 200 1
189 198 201 1
190 202 204 1
191 202 205 1
192 202 206 1
193 207 209 2
194 208 209 1
195 209 210 1
196 210 211 1
197 210 215 1
198 210 216 1
199 211 212 1
200 211 213 1
201 211 214 1
202 215 217 1
203 215 218 1
204 215 219 1
205 220 222 2
206 221 222 1
207 222 223 1
208 223 224 1
209 223 228 1
210 223 229 1
211 224 225 1
212 224 226 1
213 224 227 1
214 228 230 1
215 228 231 1
216 228 232 1
217 233 235 2
218 234 235 1
219 235 236 1
220 236 237 1
221 236 241 1
222 236 242 1
223 237 238 1
224 237 239 1
225 237 240 1
226 241 243 1
227 241 244 1
228 241 245 1
229 246 248 2
230 247 248 1
231 248 249 1
232 249 250 1
233 249 254 1
234 249 255 1
235 250 251 1
236 250 252 1
237 250 253 1
238 254 256 1
239 254 257 1
240 254 258 1
241 259 261 2
242 260 261 1
243 261 262 1
244 262 263 1
245 262 267 1
246 262 268 1
247 263 264 1
248 263 265 1
249 263 266 1
250 267 269 1
251 267 270 1
252 267 271 1
253 272 274 2
254 273 274 1
255 274 275 1
256 275 276 1
257 275 280 1
258 275 281 1
259 276 277 1
260 276 278 1
261 276 279 1
262 280 282 1
263 280 283 1
264 280 284 1
