@<TRIPOS>MOLECULE
Molecule Name
102 96
SMALL
NO_CHARGES

@<TRIPOS>ATOM
1 C1	0.0000	0.0000	0.0000 C
2 O2	-1.2298	0.0000	0.0000 O
3 O3	0.6881	1.1839	0.0000 O
4 H4	1.6739	1.0882	-0.0510 H
5 N5	2.0239	-1.2376	0.8546 N
6 C6	3.3908	0.0440	-0.6870 C
7 H7	2.6996	-0.0220	-1.5196 H
8 H8	4.3322	0.5373	-0.8876 H
9 C9	4.2746	-0.5377	1.5733 C
10 H10	4.6845	-1.5379	1.7617 H
11 H11	5.0965	0.1018	1.2468 H
12 H12	3.8956	-0.1505	2.5261 H
13 C13	0.8812	-3.1587	1.6067 C
14 C14	1.7931	-2.0163	2.0885 C
15 C15	0.8379	-1.3031	-0.0224 C
16 C16	0.0105	-2.5094	0.5039 C
17 H17	1.4957	-3.9649	1.1898 H
18 H18	0.2783	-3.5788	2.4172 H
19 H19	2.7338	-2.3784	2.5059 H
20 H20	1.2915	-1.4062	2.8554 H
21 H21	1.1611	-1.4665	-1.0607 H
22 H22	-0.9411	-2.1443	0.8977 H
23 H23	-0.2215	-3.2122	-0.3004 H
24 C24	3.1949	-0.5768	0.5130 C
25 O25	0.3001	-0.9435	-3.1254 O
26 H26	0.1995	0.8746	-4.0280 H
27 C27	0.0575	-0.2224	-4.0998 C
28 C28	-0.4380	-0.7134	-5.4452 C
29 C29	-0.5393	-2.2431	-5.5037 C
30 H30	0.4513	-2.7001	-5.4018 H
31 H31	-0.9702	-2.5641	-6.4580 H
32 H32	-1.1618	-2.6287	-4.6910 H
33 C33	0.4492	-0.1276	-6.5704 C
34 H34	-1.4462	-0.2771	-5.5645 H
35 H35	0.5190	0.9648	-6.5030 H
36 H36	0.0327	-0.3795	-7.5511 H
37 H37	1.4642	-0.5383	-6.5170 H
38 O38	0.6375	-0.0170	-2.7623 O
39 H39	-1.0111	-0.1474	-3.9434 H
40 C40	0.0529	0.1454	-3.8393 C
41 C41	0.6766	0.7327	-5.0894 C
42 C42	2.1232	1.1880	-4.8576 C
43 H43	2.1587	2.0082	-4.1319 H
44 H44	2.5716	1.5370	-5.7939 H
45 H45	2.7344	0.3729	-4.4592 H
46 C46	-0.2272	1.8631	-5.6386 C
47 H47	0.6669	-0.0834	-5.8343 H
48 H48	-1.2589	1.5210	-5.7849 H
49 H49	0.1515	2.2160	-6.6033 H
50 H50	-0.2447	2.7149	-4.9487 H
51 O51	0.8228	2.7960	3.4959 O
52 H52	-0.2102	2.2209	1.8430 H
53 C53	-0.2323	2.5445	2.9030 C
54 C54	-1.6173	2.6394	3.5107 C
55 C55	-1.5744	3.0158	4.9974 C
56 H56	-1.0810	2.2305	5.5808 H
57 H57	-2.5881	3.1508	5.3897 H
58 H58	-1.0122	3.9411	5.1541 H
59 C59	-2.3912	1.3250	3.2469 C
60 H60	-2.1315	3.4391	2.9475 H
61 H61	-2.3990	1.0672	2.1809 H
62 H62	-3.4300	1.4240	3.5780 H
63 H63	-1.9379	0.4915	3.7963 H
64 O64	-2.2559	-2.8114	2.6617 O
65 H65	-4.0632	-3.7166	2.4513 H
66 C66	-3.4913	-2.8013	2.7041 C
67 C67	-4.3403	-1.6053	3.0856 C
68 C68	-3.4895	-0.3972	3.4981 C
69 H69	-2.9184	-0.6189	4.4066 H
70 H70	-4.1256	0.4724	3.6948 H
71 H71	-2.7705	-0.1355	2.7163 H
72 C72	-5.3614	-2.0192	4.1729 C
73 H73	-4.9162	-1.3517	2.1772 H
74 H74	-5.9499	-2.8916	3.8640 H
75 H75	-6.0560	-1.1969	4.3729 H
76 H76	-4.8500	-2.2671	5.1104 H
77 O77	-1.6852	0.0849	-3.2320 O
78 H78	-2.2902	2.0139	-3.4397 H
79 C79	-2.4671	1.0130	-2.9971 C
80 C80	-3.7011	0.9127	-2.1230 C
81 C81	-3.9316	-0.5130	-1.6055 C
82 H82	-4.1376	-1.1971	-2.4363 H
83 H83	-4.7838	-0.5398	-0.9180 H
84 H84	-3.0480	-0.8908	-1.0828 H
85 C85	-4.9239	1.4796	-2.8842 C
86 H86	-3.5102	1.5844	-1.2665 H
87 H87	-4.7341	2.4935	-3.2567 H
88 H88	-5.7959	1.5203	-2.2235 H
89 H89	-5.1764	0.8432	-3.7404 H
90 O90	0.7500	0.1803	4.4249 O
91 H91	-0.9925	-0.2805	5.3637 H
92 C92	-0.1436	0.4222	5.2441 C
93 C93	-0.1950	1.6415	6.1427 C
94 C94	1.0441	2.5321	5.9844 C
95 H95	1.9459	2.0006	6.3083 H
96 H96	0.9446	3.4408	6.5877 H
97 H97	1.1923	2.8199	4.9395 H
98 C98	-0.4317	1.1977	7.6067 C
99 H99	-1.0909	2.2043	5.8237 H
100 H100	-1.3137	0.5520	7.6961 H
101 H101	-0.5870	2.0720	8.2471 H
102 H102	0.4351	0.6463	7.9894 H
@<TRIPOS>BOND
1 1 2 2
2 1 3 1
3 1 15 1
4 3 4 1
5 5 14 1
6 5 15 1
7 5 24 1
8 6 7 1
9 6 8 1
10 6 24 2
11 9 10 1
12 9 11 1
13 9 12 1
14 9 24 1
15 13 14 1
16 13 16 1
17 13 17 1
18 13 18 1
19 14 19 1
20 14 20 1
21 15 16 1
22 15 21 1
23 16 22 1
24 16 23 1
25 25 27 2
26 26 27 1
27 27 28 1
28 28 29 1
29 28 33 1
30 28 34 1
31 29 30 1
32 29 31 1
33 29 32 1
34 33 35 1
35 33 36 1
36 33 37 1
37 38 40 2
38 39 40 1
39 40 41 1
40 41 42 1
41 41 46 1
42 41 47 1
43 42 43 1
44 42 44 1
45 42 45 1
46 46 48 1
47 46 49 1
48 46 50 1
49 51 53 2
50 52 53 1
51 53 54 1
52 54 55 1
53 54 59 1
54 54 60 1
55 55 56 1
56 55 57 1
57 55 58 1
58 59 61 1
59 59 62 1
60 59 63 1
61 64 66 2
62 65 66 1
63 66 67 1
64 67 68 1
65 67 72 1
66 67 73 1
67 68 69 1
68 68 70 1
69 68 71 1
70 72 74 1
71 72 75 1
72 72 76 1
73 77 79 2
74 78 79 1
75 79 80 1
76 80 81 1
77 80 85 1
78 80 86 1
79 81 82 1
80 81 83 1
81 81 84 1
82 85 87 1
83 85 88 1
84 85 89 1
85 90 92 2
86 91 92 1
87 92 93 1
88 93 94 1
89 93 98 1
90 93 99 1
91 94 95 1
92 94 96 1
93 94 97 1
94 98 100 1
95 98 101 1
96 98 102 1
