@<TRIPOS>MOLECULE
Molecule Name
50 48
SMALL
NO_CHARGES

@<TRIPOS>ATOM
1 C1	0.0000	0.0000	0.0000 C
2 O2	-1.2238	0.0000	0.0000 O
3 O3	0.6911	1.2023	0.0000 O
4 H4	1.6618	1.0855	0.0468 H
5 N5	0.4154	-2.3123	0.8346 N
6 C6	0.9921	-1.0361	2.8093 C
7 H7	1.3139	-0.1587	2.2637 H
8 H8	1.0505	-0.9738	3.8878 H
9 C9	0.4970	-2.1505	2.2199 C
10 C10	0.0134	-3.3188	3.0505 C
11 H11	0.6064	-4.2242	2.8675 H
12 H12	0.0894	-3.0775	4.1124 H
13 H13	-1.0341	-3.5607	2.8327 H
14 C14	0.5538	-3.4266	-1.2302 C
15 C15	-0.1598	-3.4727	0.1306 C
16 C16	0.8617	-1.2747	-0.0870 C
17 C17	0.6988	-1.9138	-1.5035 C
18 H18	1.5392	-3.9000	-1.1496 H
19 H19	-0.0076	-3.9368	-2.0184 H
20 H20	0.0413	-4.4000	0.6715 H
21 H21	-1.2492	-3.3735	0.0102 H
22 H22	1.9140	-1.0212	0.1250 H
23 H23	-0.2148	-1.5302	-1.9695 H
24 H24	1.5420	-1.6741	-2.1569 H
25 O25	2.9026	2.2855	1.8771 O
26 H26	1.8583	3.3346	0.4845 H
27 C27	2.4035	3.3326	1.4497 C
28 C28	2.4665	4.6763	2.1478 C
29 C29	3.1649	4.5901	3.5111 C
30 H30	2.5919	3.9590	4.1996 H
31 H31	3.2628	5.5856	3.9571 H
32 H32	4.1615	4.1491	3.4167 H
33 C33	1.0444	5.2808	2.2396 C
34 H34	3.0554	5.3285	1.4778 H
35 H35	0.5581	5.3215	1.2574 H
36 H36	1.0910	6.3003	2.6359 H
37 H37	0.4126	4.6851	2.9088 H
38 O38	3.2657	2.0798	-1.5935 O
39 H39	1.3512	1.6845	-2.1490 H
40 C40	2.2804	2.2653	-2.3166 C
41 C41	2.2146	3.2544	-3.4630 C
42 C42	3.5018	4.0790	-3.5928 C
43 H43	3.6493	4.7072	-2.7073 H
44 H44	3.4550	4.7296	-4.4726 H
45 H45	4.3784	3.4307	-3.6828 H
46 C46	0.9502	4.1353	-3.3166 C
47 H47	2.0816	2.6417	-4.3729 H
48 H48	0.0435	3.5272	-3.2122 H
49 H49	0.8291	4.7736	-4.1978 H
50 H50	1.0294	4.7837	-2.4363 H
@<TRIPOS>BOND
1 1 2 2
2 1 3 1
3 1 16 1
4 3 4 1
5 5 9 1
6 5 15 1
7 5 16 1
8 6 7 1
9 6 8 1
10 6 9 2
11 9 10 1
12 10 11 1
13 10 12 1
14 10 13 1
15 14 15 1
16 14 17 1
17 14 18 1
18 14 19 1
19 15 20 1
20 15 21 1
21 16 17 1
22 16 22 1
23 17 23 1
24 17 24 1
25 25 27 2
26 26 27 1
27 27 28 1
28 28 29 1
29 28 33 1
30 28 34 1
31 29 30 1
32 29 31 1
33 29 32 1
34 33 35 1
35 33 36 1
36 33 37 1
37 38 40 2
38 39 40 1
39 40 41 1
40 41 42 1
41 41 46 1
42 41 47 1
43 42 43 1
44 42 44 1
45 42 45 1
46 46 48 1
47 46 49 1
48 46 50 1
