@<TRIPOS>MOLECULE
Molecule Name
375 348
SMALL
NO_CHARGES

@<TRIPOS>ATOM
1 C1	0.0000	0.0000	0.0000 C
2 O2	-1.2291	0.0000	0.0000 O
3 O3	0.7352	1.1552	0.0000 O
4 H4	1.6938	0.8931	0.0110 H
5 N5	2.2937	-0.9966	-0.0600 N
6 C6	4.3264	-1.2975	-1.3542 C
7 H7	4.9387	-1.5024	-0.4856 H
8 H8	4.8366	-1.2720	-2.3088 H
9 C9	3.0003	-1.0568	-1.2920 C
10 C10	2.1883	-0.7612	-2.5344 C
11 H11	1.6350	0.1810	-2.4407 H
12 H12	2.8486	-0.6815	-3.4004 H
13 H13	1.4567	-1.5502	-2.7497 H
14 C14	1.8555	-1.4869	2.2293 C
15 C15	2.9868	-1.3898	1.1948 C
16 C16	0.8350	-1.2926	0.0333 C
17 C17	0.6718	-2.0187	1.3955 C
18 H18	2.1145	-2.1442	3.0638 H
19 H19	1.6223	-0.4975	2.6408 H
20 H20	3.4868	-2.3620	1.0621 H
21 H21	3.7527	-0.6521	1.4544 H
22 H22	0.4859	-1.9242	-0.7878 H
23 H23	-0.3076	-1.8236	1.8380 H
24 H24	0.7692	-3.0998	1.2445 H
25 O25	3.7266	1.7700	0.6230 O
26 H26	5.4403	2.7754	1.0506 H
27 C27	4.3406	2.8028	0.9138 C
28 C28	3.7085	4.1661	1.1107 C
29 C29	2.2000	4.1524	0.8318 C
30 H30	2.0036	3.9174	-0.2203 H
31 H31	1.7585	5.1296	1.0546 H
32 H32	1.6939	3.3936	1.4358 H
33 C33	4.4657	5.2167	0.2628 C
34 H34	3.8800	4.4192	2.1726 H
35 H35	5.5431	5.2014	0.4675 H
36 H36	4.0941	6.2222	0.4851 H
37 H37	4.3190	5.0297	-0.8074 H
38 O38	3.7641	1.8619	0.2637 O
39 H39	4.4201	3.1942	1.6510 H
40 C40	3.9490	3.0170	0.6634 C
41 C41	3.5777	4.2729	-0.0992 C
42 C42	3.0029	3.9608	-1.4870 C
43 H43	3.7578	3.4792	-2.1185 H
44 H44	2.6745	4.8802	-1.9833 H
45 H45	2.1517	3.2773	-1.4170 H
46 C46	4.7964	5.2256	-0.1551 C
47 H47	2.8029	4.7700	0.5121 H
48 H48	5.1998	5.4255	0.8450 H
49 H49	4.5084	6.1833	-0.6006 H
50 H50	5.5977	4.7944	-0.7664 H
51 O51	-1.1389	-3.1271	-1.8809 O
52 H52	-2.8004	-2.0025	-2.2041 H
53 C53	-2.3596	-3.0050	-2.0325 C
54 C54	-3.3593	-4.1437	-2.0056 C
55 C55	-2.6795	-5.5093	-1.8425 C
56 H56	-2.0460	-5.7316	-2.7085 H
57 H57	-3.4281	-6.3034	-1.7506 H
58 H58	-2.0388	-5.5278	-0.9560 H
59 C59	-4.2639	-4.0700	-3.2596 C
60 H60	-4.0022	-3.9500	-1.1280 H
61 H61	-4.7296	-3.0827	-3.3648 H
62 H62	-5.0633	-4.8152	-3.1943 H
63 H63	-3.6844	-4.2726	-4.1679 H
64 O64	2.8569	2.8696	-0.1351 O
65 H65	1.0960	3.4700	0.6827 H
66 C66	2.0863	3.7476	0.2690 C
67 C67	2.3755	5.2352	0.2540 C
68 C68	3.7882	5.5469	-0.2566 C
69 H69	4.5438	5.1357	0.4220 H
70 H70	3.9417	6.6290	-0.3278 H
71 H71	3.9584	5.1034	-1.2420 H
72 C72	2.0989	5.8319	1.6553 C
73 H73	1.6335	5.6721	-0.4386 H
74 H74	1.0894	5.5870	2.0072 H
75 H75	2.1915	6.9225	1.6277 H
76 H76	2.8182	5.4488	2.3885 H
77 O77	-0.9353	-3.7193	-0.5994 O
78 H78	-2.7872	-2.8977	-0.7594 H
79 C79	-2.1651	-3.7734	-0.4859 C
80 C80	-2.9420	-4.9750	0.0134 C
81 C81	-2.0321	-6.1764	0.3004 C
82 H82	-1.5574	-6.5306	-0.6215 H
83 H83	-2.6090	-7.0023	0.7300 H
84 H84	-1.2324	-5.9082	0.9971 H
85 C85	-4.0792	-5.3084	-0.9826 C
86 H86	-3.4188	-4.6466	0.9546 H
87 H87	-4.7097	-4.4339	-1.1840 H
88 H88	-4.7184	-6.0992	-0.5769 H
89 H89	-3.6684	-5.6599	-1.9362 H
90 O90	0.1019	1.1802	3.0269 O
91 H91	-0.7944	2.8145	2.2171 H
92 C92	-0.7336	2.0908	3.0545 C
93 C93	-1.7293	2.3262	4.1726 C
94 C94	-1.6459	1.2480	5.2608 C
95 H95	-1.9258	0.2687	4.8568 H
96 H96	-2.3216	1.4845	6.0896 H
97 H97	-0.6282	1.1608	5.6527 H
98 C98	-3.1517	2.4705	3.5791 C
99 H99	-1.4569	3.3046	4.6080 H
100 H100	-3.1869	3.2364	2.7948 H
101 H101	-3.8616	2.7561	4.3620 H
102 H102	-3.4886	1.5219	3.1451 H
103 O103	3.4339	1.6578	2.0422 O
104 H104	1.5463	1.7947	2.7828 H
105 C105	2.5940	2.1566	2.7997 C
106 C106	2.8683	3.2656	3.7956 C
107 C107	4.3488	3.6668	3.8244 C
108 H108	4.9681	2.8341	4.1760 H
109 H109	4.5038	4.5185	4.4954 H
110 H110	4.7035	3.9386	2.8259 H
111 C111	2.3302	2.8573	5.1884 C
112 H112	2.2649	4.1252	3.4521 H
113 H113	1.2750	2.5620	5.1437 H
114 H114	2.4172	3.6946	5.8884 H
115 H115	2.9034	2.0153	5.5937 H
116 O116	-0.9333	-3.7179	-1.0215 O
117 H117	-2.4197	-3.5656	-2.3991 H
118 C118	-1.8949	-4.1837	-1.6432 C
119 C119	-2.4527	-5.5816	-1.4657 C
120 C120	-1.6364	-6.4096	-0.4648 C
121 H121	-0.6195	-6.5742	-0.8380 H
122 H122	-2.1051	-7.3857	-0.3002 H
123 H123	-1.5520	-5.8950	0.4969 H
124 C124	-2.5825	-6.2680	-2.8470 C
125 H125	-3.4763	-5.4422	-1.0734 H
126 H126	-3.1578	-5.6546	-3.5510 H
127 H127	-3.0916	-7.2318	-2.7447 H
128 H128	-1.5936	-6.4512	-3.2832 H
129 O129	2.4165	1.4165	3.6326 O
130 H130	0.7492	1.6725	2.4991 H
131 C131	1.3322	1.9612	3.3966 C
132 C132	0.6917	3.0348	4.2533 C
133 C133	1.5084	3.3329	5.5174 C
134 H134	1.5418	2.4547	6.1719 H
135 H135	1.0629	4.1625	6.0767 H
136 H136	2.5411	3.5935	5.2676 H
137 C137	-0.7739	2.6452	4.5641 C
138 H138	0.6611	3.9386	3.6183 H
139 H139	-1.3363	2.4237	3.6490 H
140 H140	-1.2819	3.4647	5.0827 H
141 H141	-0.8109	1.7602	5.2101 H
142 O142	-4.6906	2.5677	1.7001 O
143 H143	-2.7584	2.5895	1.0706 H
144 C144	-3.5466	2.0997	1.6768 C
145 C145	-3.0948	0.8649	2.4305 C
146 C146	-4.2088	0.2808	3.3088 C
147 H147	-4.4888	0.9870	4.0984 H
148 H148	-3.8783	-0.6505	3.7810 H
149 H149	-5.1081	0.0752	2.7207 H
150 C150	-1.8079	1.1858	3.2285 C
151 H151	-2.8212	0.1293	1.6526 H
152 H152	-1.0294	1.6139	2.5855 H
153 H153	-1.4068	0.2741	3.6830 H
154 H154	-2.0184	1.9012	4.0320 H
155 O155	-2.6140	4.0292	0.3425 O
156 H156	-2.8891	2.5362	1.6936 H
157 C157	-3.0569	2.9219	0.6680 C
158 C158	-3.8433	1.9970	-0.2392 C
159 C159	-4.1074	2.6205	-1.6158 C
160 H160	-4.7446	3.5070	-1.5227 H
161 H161	-4.6097	1.9029	-2.2734 H
162 H162	-3.1744	2.9374	-2.0910 H
163 C163	-5.1413	1.5491	0.4755 C
164 H164	-3.2118	1.0984	-0.3617 H
165 H165	-4.9318	1.1185	1.4622 H
166 H166	-5.6596	0.7910	-0.1206 H
167 H167	-5.8217	2.3979	0.6110 H
168 O168	4.2840	-4.4912	0.7254 O
169 H169	4.8589	-5.0123	-1.1529 H
170 C170	4.9471	-5.1776	-0.0604 C
171 C171	5.9136	-6.2735	0.3416 C
172 C172	6.0480	-6.3992	1.8647 C
173 H173	6.4853	-5.4892	2.2905 H
174 H174	6.6922	-7.2456	2.1257 H
175 H175	5.0716	-6.5438	2.3364 H
176 C176	7.2732	-6.0511	-0.3642 C
177 H177	5.4845	-7.2074	-0.0642 H
178 H178	7.1538	-5.9509	-1.4497 H
179 H179	7.9414	-6.8974	-0.1746 H
180 H180	7.7606	-5.1435	0.0108 H
181 O181	6.1659	-1.4330	1.4541 O
182 H182	7.9456	-0.5917	0.9492 H
183 C183	7.4019	-1.4108	1.4612 C
184 C184	8.2880	-2.4409	2.1324 C
185 C185	7.4763	-3.5018	2.8868 C
186 H186	6.9219	-3.0472	3.7155 H
187 H187	8.1374	-4.2728	3.2968 H
188 H188	6.7453	-3.9810	2.2290 H
189 C189	9.3246	-1.7262	3.0329 C
190 H190	8.8479	-2.9261	1.3125 H
191 H191	9.8846	-0.9636	2.4783 H
192 H192	10.0432	-2.4498	3.4312 H
193 H193	8.8300	-1.2375	3.8804 H
194 O194	4.4912	-0.1744	-4.9279 O
195 H195	3.6482	1.6089	-5.4173 H
196 C196	4.3149	0.7711	-5.7045 C
197 C197	4.9500	0.9039	-7.0741 C
198 C198	5.9190	-0.2458	-7.3786 C
199 H199	6.7694	-0.2277	-6.6880 H
200 H200	6.3037	-0.1644	-8.4008 H
201 H201	5.4274	-1.2166	-7.2658 H
202 C202	5.6116	2.2970	-7.2067 C
203 H203	4.1104	0.8721	-7.7919 H
204 H204	4.9065	3.1037	-6.9724 H
205 H205	5.9717	2.4496	-8.2292 H
206 H206	6.4684	2.3851	-6.5285 H
207 O207	-7.2555	-0.0048	0.0118 O
208 H208	-6.8367	-0.0061	-1.9768 H
209 C209	-6.4603	-0.0249	-0.9344 C
210 C210	-4.9512	-0.0749	-0.8034 C
211 C211	-4.4933	-0.0205	0.6598 C
212 H212	-4.7684	0.9373	1.1154 H
213 H213	-3.4061	-0.1343	0.7274 H
214 H214	-4.9656	-0.8107	1.2508 H
215 C215	-4.3176	1.0387	-1.6721 C
216 H216	-4.6498	-1.0428	-1.2433 H
217 H217	-4.6675	0.9901	-2.7103 H
218 H218	-3.2273	0.9400	-1.6782 H
219 H219	-4.5664	2.0294	-1.2740 H
220 O220	-0.0615	3.5810	3.5932 O
221 H221	0.1757	4.9338	2.0952 H
222 C222	-0.4523	4.1530	2.5694 C
223 C223	-1.7665	3.8792	1.8660 C
224 C224	-2.5511	2.7376	2.5254 C
225 H225	-2.0024	1.7928	2.4417 H
226 H226	-3.5269	2.6129	2.0440 H
227 H227	-2.7082	2.9306	3.5906 H
228 C228	-1.5081	3.6372	0.3590 C
229 H229	-2.3464	4.8159	1.9510 H
230 H230	-0.9353	4.4577	-0.0900 H
231 H231	-2.4576	3.5540	-0.1795 H
232 H232	-0.9486	2.7069	0.2063 H
233 O233	6.3971	-2.2687	1.1139 O
234 H234	6.9720	-2.7898	-0.7644 H
235 C235	7.0602	-2.9551	0.3282 C
236 C236	8.0267	-4.0510	0.7301 C
237 C237	8.1610	-4.1767	2.2532 C
238 H238	8.5984	-3.2667	2.6790 H
239 H239	8.8053	-5.0231	2.5142 H
240 H240	7.1847	-4.3213	2.7249 H
241 C241	9.3863	-3.8286	0.0244 C
242 H242	7.5976	-4.9849	0.3243 H
243 H243	9.2669	-3.7284	-1.0612 H
244 H244	10.0544	-4.6749	0.2139 H
245 H245	9.8736	-2.9210	0.3993 H
246 O246	-5.2899	-1.1354	-2.4184 O
247 H247	-6.1677	-1.0254	-0.5887 H
248 C248	-5.5437	-0.5395	-1.3654 C
249 C249	-5.0633	0.8547	-1.0157 C
250 C250	-4.1432	1.4395	-2.0950 C
251 H251	-3.2214	0.8529	-2.1763 H
252 H252	-3.8736	2.4729	-1.8523 H
253 H253	-4.6270	1.4251	-3.0761 H
254 C254	-4.4094	0.8416	0.3873 C
255 H255	-5.9775	1.4713	-0.9435 H
256 H256	-5.0778	0.4083	1.1411 H
257 H257	-4.1636	1.8616	0.7002 H
258 H258	-3.4820	0.2571	0.3771 H
259 O259	-3.2293	4.4965	0.6621 O
260 H260	-1.1978	4.4377	0.6563 H
261 C261	-2.1531	3.9778	0.9798 C
262 C262	-2.0043	2.7164	1.8067 C
263 C263	-3.3567	2.1742	2.2870 C
264 H264	-3.8376	2.8844	2.9690 H
265 H265	-3.2247	1.2243	2.8160 H
266 H266	-4.0391	2.0153	1.4469 H
267 C267	-1.0134	2.9710	2.9683 C
268 H268	-1.5343	1.9771	1.1332 H
269 H269	-0.0585	3.3701	2.6052 H
270 H270	-0.8080	2.0377	3.5024 H
271 H271	-1.4322	3.6871	3.6850 H
272 O272	5.9694	-1.6746	-4.2661 O
273 H273	6.9777	-2.2819	-5.9228 H
274 C274	6.9086	-2.2603	-4.8167 C
275 C275	8.0267	-2.9852	-4.0948 C
276 C276	7.9156	-2.8522	-2.5705 C
277 H277	8.0346	-1.8070	-2.2640 H
278 H278	8.6905	-3.4468	-2.0748 H
279 H279	6.9366	-3.1871	-2.2154 H
280 C280	9.3935	-2.5058	-4.6407 C
281 H281	7.9179	-4.0482	-4.3763 H
282 H282	9.4476	-2.5968	-5.7323 H
283 H283	10.2038	-3.1039	-4.2114 H
284 H284	9.5698	-1.4565	-4.3767 H
285 O285	0.9480	-2.4652	-4.7953 O
286 H286	-0.5465	-3.7735	-5.2255 H
287 C287	0.3387	-3.2054	-5.5756 C
288 C288	0.6994	-3.4228	-7.0315 C
289 C289	1.8825	-2.5515	-7.4728 C
290 H290	1.6209	-1.4888	-7.4192 H
291 H291	2.1682	-2.7842	-8.5042 H
292 H292	2.7504	-2.7072	-6.8253 H
293 C293	-0.5566	-3.2202	-7.9133 C
294 H294	0.9833	-4.4880	-7.1082 H
295 H295	-1.3939	-3.8417	-7.5735 H
296 H296	-0.3373	-3.4876	-8.9520 H
297 H297	-0.8791	-2.1726	-7.8934 H
298 O298	6.5288	-1.3651	-3.8602 O
299 H299	7.6525	-0.6034	-5.3726 H
300 C300	7.0040	-1.4215	-5.0000 C
301 C301	6.7768	-2.5518	-5.9838 C
302 C302	5.9373	-3.6858	-5.3814 C
303 H303	6.4690	-4.1602	-4.5491 H
304 H304	5.7261	-4.4510	-6.1360 H
305 H305	4.9879	-3.3088	-4.9898 H
306 C306	8.1378	-3.0410	-6.5356 C
307 H307	6.2258	-2.1001	-6.8285 H
308 H308	8.7273	-2.2140	-6.9495 H
309 H309	7.9815	-3.7759	-7.3320 H
310 H310	8.7278	-3.5183	-5.7445 H
311 O311	1.2777	5.9248	4.6950 O
312 H312	0.3829	6.2922	2.9077 H
313 C313	0.7973	5.5502	3.6194 C
314 C314	0.7156	4.1095	3.1563 C
315 C315	1.3742	3.1424	4.1486 C
316 H316	2.4499	3.3377	4.2224 H
317 H317	1.2338	2.1052	3.8261 H
318 H318	0.9520	3.2576	5.1512 H
319 C319	1.2969	3.9900	1.7266 C
320 H320	-0.3639	3.8829	3.0893 H
321 H321	0.8222	4.6979	1.0365 H
322 H322	1.1377	2.9796	1.3362 H
323 H323	2.3753	4.1868	1.7291 H
324 O324	2.5825	6.3618	2.2409 O
325 H325	1.6878	6.7292	0.4535 H
326 C326	2.1022	5.9872	1.1653 C
327 C327	2.0204	4.5465	0.7022 C
328 C328	2.6790	3.5794	1.6945 C
329 H329	3.7547	3.7747	1.7682 H
330 H330	2.5386	2.5422	1.3720 H
331 H331	2.2568	3.6946	2.6971 H
332 C332	2.6017	4.4270	-0.7275 C
333 H333	0.9409	4.3199	0.6352 H
334 H334	2.1270	5.1349	-1.4176 H
335 H335	2.4426	3.4166	-1.1179 H
336 H336	3.6802	4.6238	-0.7250 H
337 O337	6.3292	-4.3218	2.4394 O
338 H338	5.3362	-5.9784	1.8071 H
339 C339	6.0007	-5.1262	1.5601 C
340 C340	6.4373	-5.0589	0.1104 C
341 C341	7.2893	-3.8171	-0.1823 C
342 H342	6.7024	-2.9031	-0.0383 H
343 H343	7.6522	-3.8341	-1.2155 H
344 H344	8.1502	-3.7617	0.4904 H
345 C345	5.1977	-5.1665	-0.8106 C
346 H346	7.0465	-5.9657	-0.0557 H
347 H347	4.5958	-6.0529	-0.5767 H
348 H348	5.5088	-5.2363	-1.8579 H
349 H349	4.5584	-4.2822	-0.7047 H
350 O350	-4.7387	-4.1207	5.0117 O
351 H351	-4.6261	-5.3832	3.4231 H
352 C352	-4.2912	-4.4429	3.9053 C
353 C353	-3.2831	-3.6418	3.1062 C
354 C354	-2.9200	-2.3177	3.7907 C
355 H355	-3.7949	-1.6608	3.8503 H
356 H356	-2.1360	-1.7970	3.2305 H
357 H357	-2.5675	-2.4854	4.8127 H
358 C358	-3.8029	-3.4471	1.6612 C
359 H359	-2.3825	-4.2791	3.0456 H
360 H360	-4.0688	-4.4034	1.1947 H
361 H361	-3.0343	-2.9720	1.0429 H
362 H362	-4.6909	-2.8043	1.6521 H
363 O363	-1.3995	0.7508	7.2914 O
364 H364	-2.2036	-1.0433	6.7769 H
365 C365	-1.5986	-0.1624	6.4824 C
366 C366	-1.0728	-0.1977	5.0614 C
367 C367	-0.3114	1.0820	4.6922 C
368 H368	-0.9821	1.9484	4.7064 H
369 H369	0.1203	0.9971	3.6892 H
370 H370	0.4944	1.2812	5.4046 H
371 C371	-2.2340	-0.5074	4.0858 C
372 H372	-0.3790	-1.0570	5.0258 H
373 H373	-2.7729	-1.4179	4.3745 H
374 H374	-1.8483	-0.6508	3.0712 H
375 H375	-2.9517	0.3210	4.0621 H
@<TRIPOS>BOND
1 1 2 2
2 1 3 1
3 1 16 1
4 3 4 1
5 5 9 1
6 5 15 1
7 5 16 1
8 6 7 1
9 6 8 1
10 6 9 2
11 9 10 1
12 10 11 1
13 10 12 1
14 10 13 1
15 14 15 1
16 14 17 1
17 14 18 1
18 14 19 1
19 15 20 1
20 15 21 1
21 16 17 1
22 16 22 1
23 17 23 1
24 17 24 1
25 25 27 2
26 26 27 1
27 27 28 1
28 28 29 1
29 28 33 1
30 28 34 1
31 29 30 1
32 29 31 1
33 29 32 1
34 33 35 1
35 33 36 1
36 33 37 1
37 38 40 2
38 39 40 1
39 40 41 1
40 41 42 1
41 41 46 1
42 41 47 1
43 42 43 1
44 42 44 1
45 42 45 1
46 46 48 1
47 46 49 1
48 46 50 1
49 51 53 2
50 52 53 1
51 53 54 1
52 54 55 1
53 54 59 1
54 54 60 1
55 55 56 1
56 55 57 1
57 55 58 1
58 59 61 1
59 59 62 1
60 59 63 1
61 64 66 2
62 65 66 1
63 66 67 1
64 67 68 1
65 67 72 1
66 67 73 1
67 68 69 1
68 68 70 1
69 68 71 1
70 72 74 1
71 72 75 1
72 72 76 1
73 77 79 2
74 78 79 1
75 79 80 1
76 80 81 1
77 80 85 1
78 80 86 1
79 81 82 1
80 81 83 1
81 81 84 1
82 85 87 1
83 85 88 1
84 85 89 1
85 90 92 2
86 91 92 1
87 92 93 1
88 93 94 1
89 93 98 1
90 93 99 1
91 94 95 1
92 94 96 1
93 94 97 1
94 98 100 1
95 98 101 1
96 98 102 1
97 103 105 2
98 104 105 1
99 105 106 1
100 106 107 1
101 106 111 1
102 106 112 1
103 107 108 1
104 107 109 1
105 107 110 1
106 111 113 1
107 111 114 1
108 111 115 1
109 116 118 2
110 117 118 1
111 118 119 1
112 119 120 1
113 119 124 1
114 119 125 1
115 120 121 1
116 120 122 1
117 120 123 1
118 124 126 1
119 124 127 1
120 124 128 1
121 129 131 2
122 130 131 1
123 131 132 1
124 132 133 1
125 132 137 1
126 132 138 1
127 133 134 1
128 133 135 1
129 133 136 1
130 137 139 1
131 137 140 1
132 137 141 1
133 142 144 2
134 143 144 1
135 144 145 1
136 145 146 1
137 145 150 1
138 145 151 1
139 146 147 1
140 146 148 1
141 146 149 1
142 150 152 1
143 150 153 1
144 150 154 1
145 155 157 2
146 156 157 1
147 157 158 1
148 158 159 1
149 158 163 1
150 158 164 1
151 159 160 1
152 159 161 1
153 159 162 1
154 163 165 1
155 163 166 1
156 163 167 1
157 168 170 2
158 169 170 1
159 170 171 1
160 171 172 1
161 171 176 1
162 171 177 1
163 172 173 1
164 172 174 1
165 172 175 1
166 176 178 1
167 176 179 1
168 176 180 1
169 181 183 2
170 182 183 1
171 183 184 1
172 184 185 1
173 184 189 1
174 184 190 1
175 185 186 1
176 185 187 1
177 185 188 1
178 189 191 1
179 189 192 1
180 189 193 1
181 194 196 2
182 195 196 1
183 196 197 1
184 197 198 1
185 197 202 1
186 197 203 1
187 198 199 1
188 198 200 1
189 198 201 1
190 202 204 1
191 202 205 1
192 202 206 1
193 207 209 2
194 208 209 1
195 209 210 1
196 210 211 1
197 210 215 1
198 210 216 1
199 211 212 1
200 211 213 1
201 211 214 1
202 215 217 1
203 215 218 1
204 215 219 1
205 220 222 2
206 221 222 1
207 222 223 1
208 223 224 1
209 223 228 1
210 223 229 1
211 224 225 1
212 224 226 1
213 224 227 1
214 228 230 1
215 228 231 1
216 228 232 1
217 233 235 2
218 234 235 1
219 235 236 1
220 236 237 1
221 236 241 1
222 236 242 1
223 237 238 1
224 237 239 1
225 237 240 1
226 241 243 1
227 241 244 1
228 241 245 1
229 246 248 2
230 247 248 1
231 248 249 1
232 249 250 1
233 249 254 1
234 249 255 1
235 250 251 1
236 250 252 1
237 250 253 1
238 254 256 1
239 254 257 1
240 254 258 1
241 259 261 2
242 260 261 1
243 261 262 1
244 262 263 1
245 262 267 1
246 262 268 1
247 263 264 1
248 263 265 1
249 263 266 1
250 267 269 1
251 267 270 1
252 267 271 1
253 272 274 2
254 273 274 1
255 274 275 1
256 275 276 1
257 275 280 1
258 275 281 1
259 276 277 1
260 276 278 1
261 276 279 1
262 280 282 1
263 280 283 1
264 280 284 1
265 285 287 2
266 286 287 1
267 287 288 1
268 288 289 1
269 288 293 1
270 288 294 1
271 289 290 1
272 289 291 1
273 289 292 1
274 293 295 1
275 293 296 1
276 293 297 1
277 298 300 2
278 299 300 1
279 300 301 1
280 301 302 1
281 301 306 1
282 301 307 1
283 302 303 1
284 302 304 1
285 302 305 1
286 306 308 1
287 306 309 1
288 306 310 1
289 311 313 2
290 312 313 1
291 313 314 1
292 314 315 1
293 314 319 1
294 314 320 1
295 315 316 1
296 315 317 1
297 315 318 1
298 319 321 1
299 319 322 1
300 319 323 1
301 324 326 2
302 325 326 1
303 326 327 1
304 327 328 1
305 327 332 1
306 327 333 1
307 328 329 1
308 328 330 1
309 328 331 1
310 332 334 1
311 332 335 1
312 332 336 1
313 337 339 2
314 338 339 1
315 339 340 1
316 340 341 1
317 340 345 1
318 340 346 1
319 341 342 1
320 341 343 1
321 341 344 1
322 345 347 1
323 345 348 1
324 345 349 1
325 350 352 2
326 351 352 1
327 352 353 1
328 353 354 1
329 353 358 1
330 353 359 1
331 354 355 1
332 354 356 1
333 354 357 1
334 358 360 1
335 358 361 1
336 358 362 1
337 363 365 2
338 364 365 1
339 365 366 1
340 366 367 1
341 366 371 1
342 366 372 1
343 367 368 1
344 367 369 1
345 367 370 1
346 371 373 1
347 371 374 1
348 371 375 1
