@<TRIPOS>MOLECULE
Molecule Name
128 120
SMALL
NO_CHARGES

@<TRIPOS>ATOM
1 C1	0.0000	0.0000	0.0000 C
2 O2	-1.2277	0.0000	0.0000 O
3 O3	0.7282	1.1653	0.0000 O
4 H4	1.6891	0.9384	-0.0528 H
5 N5	2.2374	-1.0721	-0.3625 N
6 C6	3.8790	-0.9407	-2.1454 C
7 H7	4.7241	-1.0195	-1.4734 H
8 H8	4.1074	-0.8273	-3.1973 H
9 C9	2.5932	-0.9425	-1.7310 C
10 C10	1.4550	-0.7647	-2.7128 C
11 H11	0.8870	0.1533	-2.5204 H
12 H12	1.8525	-0.7002	-3.7276 H
13 H13	0.7474	-1.6019	-2.6833 H
14 C14	2.3493	-2.4254	1.6128 C
15 C15	3.2143	-1.6524	0.5997 C
16 C16	0.8410	-1.2749	0.0897 C
17 C17	0.9956	-1.6932	1.5790 C
18 H18	2.2252	-3.4639	1.2835 H
19 H19	2.7911	-2.4430	2.6133 H
20 H20	3.9089	-2.3108	0.0665 H
21 H21	3.8053	-0.8621	1.0809 H
22 H22	0.3197	-2.0567	-0.4748 H
23 H23	1.0306	-0.7982	2.2122 H
24 H24	0.1530	-2.3044	1.9090 H
25 O25	-1.2119	-3.7575	-0.2907 O
26 H26	-2.6026	-2.2799	-0.1773 H
27 C27	-2.3811	-3.3570	-0.3171 C
28 C28	-3.5981	-4.2344	-0.5319 C
29 C29	-3.2196	-5.6975	-0.7958 C
30 H30	-2.6573	-5.7885	-1.7318 H
31 H31	-4.1178	-6.3197	-0.8717 H
32 H32	-2.5870	-6.0921	0.0048 H
33 C33	-4.4813	-3.6320	-1.6514 C
34 H34	-4.1755	-4.1717	0.4082 H
35 H35	-4.7295	-2.5829	-1.4503 H
36 H36	-5.4190	-4.1907	-1.7360 H
37 H37	-3.9681	-3.6818	-2.6189 H
38 O38	3.0550	2.5723	0.8153 O
39 H39	2.5194	3.2818	-1.0122 H
40 C40	3.0067	3.4689	-0.0343 C
41 C41	3.5744	4.8635	0.1374 C
42 C42	4.1643	5.0820	1.5367 C
43 H43	3.3814	5.0174	2.3005 H
44 H44	4.6333	6.0693	1.6068 H
45 H45	4.9139	4.3208	1.7722 H
46 C46	2.4960	5.9118	-0.2293 C
47 H47	4.3799	4.9478	-0.6144 H
48 H48	2.0783	5.7303	-1.2269 H
49 H49	2.9277	6.9178	-0.2218 H
50 H50	1.6729	5.8903	0.4945 H
51 O51	-1.2579	-3.3887	-1.4862 O
52 H52	-2.8006	-3.0036	-2.7520 H
53 C53	-2.2730	-3.7312	-2.1030 C
54 C54	-2.8962	-5.1119	-2.0572 C
55 C55	-2.0772	-6.0905	-1.2057 C
56 H56	-1.0904	-6.2585	-1.6515 H
57 H57	-2.5892	-7.0557	-1.1290 H
58 H58	-1.9172	-5.6978	-0.1972 H
59 C59	-3.1315	-5.6233	-3.4992 C
60 H60	-3.8899	-4.9709	-1.5950 H
61 H61	-3.7071	-4.9041	-4.0945 H
62 H62	-3.6863	-6.5669	-3.4806 H
63 H63	-2.1768	-5.8009	-4.0080 H
64 O64	-1.2399	-3.8539	2.8813 O
65 H65	-2.4282	-4.5520	1.3876 H
66 C66	-2.1421	-4.5854	2.4580 C
67 C67	-2.9322	-5.5692	3.2975 C
68 C68	-2.4369	-5.6232	4.7485 C
69 H69	-1.4093	-6.0011	4.7922 H
70 H70	-3.0725	-6.2838	5.3479 H
71 H71	-2.4385	-4.6283	5.2033 H
72 C72	-2.9300	-6.9566	2.6109 C
73 H73	-3.9734	-5.1994	3.2819 H
74 H74	-3.2747	-6.8941	1.5717 H
75 H75	-3.5925	-7.6449	3.1456 H
76 H76	-1.9219	-7.3872	2.6108 H
77 O77	-2.2408	1.3118	-3.1182 O
78 H78	-2.8276	0.0341	-1.6508 H
79 C79	-3.0412	0.9403	-2.2525 C
80 C80	-4.3463	1.6340	-1.9171 C
81 C81	-4.5450	2.9207	-2.7286 C
82 H82	-3.7775	3.6602	-2.4745 H
83 H83	-5.5273	3.3586	-2.5213 H
84 H84	-4.4680	2.7260	-3.8023 H
85 C85	-4.4316	1.8690	-0.3895 C
86 H86	-5.1396	0.9113	-2.1806 H
87 H87	-4.2741	0.9402	0.1721 H
88 H88	-5.4173	2.2627	-0.1213 H
89 H89	-3.6767	2.5953	-0.0664 H
90 O90	6.0185	-3.1981	0.2537 O
91 H91	6.1882	-3.6826	-1.7126 H
92 C92	6.5691	-3.7958	-0.6778 C
93 C93	7.7694	-4.7104	-0.5378 C
94 C94	8.2943	-4.7631	0.9028 C
95 H95	8.6698	-3.7817	1.2134 H
96 H96	9.1114	-5.4873	0.9885 H
97 H97	7.5014	-5.0454	1.6016 H
98 C98	8.8580	-4.2981	-1.5582 C
99 H99	7.4106	-5.7135	-0.8313 H
100 H100	8.4596	-4.2539	-2.5790 H
101 H101	9.6803	-5.0208	-1.5476 H
102 H102	9.2691	-3.3128	-1.3093 H
103 O103	2.2016	3.5684	2.7611 O
104 H104	0.6940	2.6610	1.7444 H
105 C105	1.0120	3.2643	2.6183 C
106 C106	-0.1064	3.6530	3.5643 C
107 C107	0.4095	4.4181	4.7899 C
108 H108	1.0621	3.7806	5.3969 H
109 H109	-0.4256	4.7508	5.4155 H
110 H110	0.9940	5.2933	4.4915 H
111 C111	-0.9262	2.3958	3.9433 C
112 H112	-0.7721	4.3117	2.9778 H
113 H113	-1.2743	1.8567	3.0540 H
114 H114	-1.8048	2.6797	4.5316 H
115 H115	-0.3226	1.7068	4.5457 H
116 O116	-2.3731	4.1739	0.7396 O
117 H117	-2.5101	2.6714	2.1012 H
118 C118	-2.8002	3.0746	1.1102 C
119 C119	-3.7244	2.1826	0.3058 C
120 C120	-4.1494	2.8306	-1.0182 C
121 H121	-4.7438	3.7324	-0.8339 H
122 H122	-4.7535	2.1351	-1.6107 H
123 H123	-3.2784	3.1288	-1.6091 H
124 C124	-4.9293	1.7600	1.1808 C
125 H125	-3.1398	1.2693	0.0929 H
126 H126	-4.6043	1.3114	2.1273 H
127 H127	-5.5424	1.0238	0.6511 H
128 H128	-5.5621	2.6248	1.4126 H
@<TRIPOS>BOND
1 1 2 2
2 1 3 1
3 1 16 1
4 3 4 1
5 5 9 1
6 5 15 1
7 5 16 1
8 6 7 1
9 6 8 1
10 6 9 2
11 9 10 1
12 10 11 1
13 10 12 1
14 10 13 1
15 14 15 1
16 14 17 1
17 14 18 1
18 14 19 1
19 15 20 1
20 15 21 1
21 16 17 1
22 16 22 1
23 17 23 1
24 17 24 1
25 25 27 2
26 26 27 1
27 27 28 1
28 28 29 1
29 28 33 1
30 28 34 1
31 29 30 1
32 29 31 1
33 29 32 1
34 33 35 1
35 33 36 1
36 33 37 1
37 38 40 2
38 39 40 1
39 40 41 1
40 41 42 1
41 41 46 1
42 41 47 1
43 42 43 1
44 42 44 1
45 42 45 1
46 46 48 1
47 46 49 1
48 46 50 1
49 51 53 2
50 52 53 1
51 53 54 1
52 54 55 1
53 54 59 1
54 54 60 1
55 55 56 1
56 55 57 1
57 55 58 1
58 59 61 1
59 59 62 1
60 59 63 1
61 64 66 2
62 65 66 1
63 66 67 1
64 67 68 1
65 67 72 1
66 67 73 1
67 68 69 1
68 68 70 1
69 68 71 1
70 72 74 1
71 72 75 1
72 72 76 1
73 77 79 2
74 78 79 1
75 79 80 1
76 80 81 1
77 80 85 1
78 80 86 1
79 81 82 1
80 81 83 1
81 81 84 1
82 85 87 1
83 85 88 1
84 85 89 1
85 90 92 2
86 91 92 1
87 92 93 1
88 93 94 1
89 93 98 1
90 93 99 1
91 94 95 1
92 94 96 1
93 94 97 1
94 98 100 1
95 98 101 1
96 98 102 1
97 103 105 2
98 104 105 1
99 105 106 1
100 106 107 1
101 106 111 1
102 106 112 1
103 107 108 1
104 107 109 1
105 107 110 1
106 111 113 1
107 111 114 1
108 111 115 1
109 116 118 2
110 117 118 1
111 118 119 1
112 119 120 1
113 119 124 1
114 119 125 1
115 120 121 1
116 120 122 1
117 120 123 1
118 124 126 1
119 124 127 1
120 124 128 1
