@<TRIPOS>MOLECULE
Molecule Name
258 240
SMALL
NO_CHARGES

@<TRIPOS>ATOM
1 C1	0.0000	0.0000	0.0000 C
2 O2	-1.2347	0.0000	0.0000 O
3 O3	0.7332	1.1692	0.0000 O
4 H4	0.1359	1.9479	-0.0325 H
5 C5	2.2755	-0.7826	-3.4640 C
6 H6	3.2413	-0.3329	-3.2698 H
7 H7	1.9769	-0.8658	-4.5014 H
8 C8	1.4602	-1.2315	-2.4830 C
9 C9	0.0990	-1.8203	-2.7934 C
10 H10	-0.7193	-1.2571	-2.3297 H
11 H11	-0.0680	-1.8228	-3.8726 H
12 H12	0.0265	-2.8551	-2.4339 H
13 C13	3.2281	-1.5351	0.7320 C
14 C14	3.2027	-0.9449	-0.6870 C
15 N15	1.8381	-1.2479	-1.1331 N
16 C16	0.8878	-1.2386	-0.0108 C
17 C17	1.7944	-1.2928	1.2635 C
18 H18	3.4398	-2.6088	0.6797 H
19 H19	3.9861	-1.0698	1.3691 H
20 H20	3.9203	-1.4245	-1.3601 H
21 H21	3.4061	0.1377	-0.6818 H
22 H22	0.2065	-2.0925	-0.0630 H
23 H23	1.7453	-0.3388	1.7959 H
24 H24	1.4618	-2.0772	1.9484 H
25 O25	1.2322	3.9182	0.4032 O
26 H26	1.9641	5.5894	-0.4920 H
27 C27	1.5521	5.1122	0.4197 C
28 C28	1.4309	6.0303	1.6193 C
29 C29	0.7837	5.3316	2.8221 C
30 H30	-0.2512	5.0516	2.5955 H
31 H31	0.7781	5.9936	3.6946 H
32 H32	1.3206	4.4145	3.0817 H
33 C33	0.6904	7.3261	1.2086 C
34 H34	2.4669	6.3148	1.8779 H
35 H35	1.1607	7.8027	0.3399 H
36 H36	0.6990	8.0452	2.0340 H
37 H37	-0.3546	7.1118	0.9561 H
38 O38	-1.9717	2.3333	-0.8634 O
39 H39	-2.3552	1.8814	-2.8073 H
40 C40	-2.7445	2.0348	-1.7808 C
41 C41	-4.2414	1.8493	-1.6335 C
42 C42	-4.7045	1.9986	-0.1786 C
43 H43	-4.2755	1.2077	0.4467 H
44 H44	-5.7960	1.9349	-0.1136 H
45 H45	-4.3841	2.9566	0.2413 H
46 C46	-4.6612	0.4979	-2.2609 C
47 H47	-4.6984	2.6484	-2.2447 H
48 H48	-4.3097	0.4058	-3.2957 H
49 H49	-5.7520	0.4049	-2.2653 H
50 H50	-4.2515	-0.3404	-1.6854 H
51 O51	-0.4749	-2.5983	3.0703 O
52 H52	-1.0906	-3.1278	4.9333 H
53 C53	-1.3541	-2.7455	3.9267 C
54 C54	-2.8251	-2.4405	3.7267 C
55 C55	-3.1112	-1.8433	2.3428 C
56 H56	-2.6202	-0.8700	2.2329 H
57 H57	-4.1880	-1.7041	2.1988 H
58 H58	-2.7325	-2.4917	1.5472 H
59 C59	-3.3314	-1.5445	4.8829 C
60 H60	-3.3421	-3.4129	3.8174 H
61 H61	-3.1057	-1.9825	5.8627 H
62 H62	-4.4161	-1.4132	4.8134 H
63 H63	-2.8660	-0.5529	4.8371 H
64 O64	1.3963	3.7226	1.2915 O
65 H65	2.9762	3.2803	0.0922 H
66 C66	2.4899	3.1850	1.0837 C
67 C67	3.2673	2.3706	2.0983 C
68 C68	2.5797	2.3420	3.4694 C
69 H69	2.5446	3.3467	3.9052 H
70 H70	3.1227	1.6865	4.1587 H
71 H71	1.5487	1.9858	3.3865 H
72 C72	4.7256	2.8850	2.1692 C
73 H73	3.3029	1.3454	1.6874 H
74 H74	5.1943	2.9100	1.1780 H
75 H75	5.3267	2.2325	2.8106 H
76 H76	4.7594	3.8975	2.5883 H
77 O77	-2.0731	6.1829	-2.1586 O
78 H78	-3.5061	5.3411	-3.3283 H
79 C79	-2.8164	5.2441	-2.4659 C
80 C80	-2.8802	3.9118	-1.7465 C
81 C81	-1.8493	3.8132	-0.6147 C
82 H82	-0.8303	3.8505	-1.0157 H
83 H83	-1.9691	2.8730	-0.0657 H
84 H84	-1.9542	4.6448	0.0882 H
85 C85	-2.7552	2.7606	-2.7738 C
86 H86	-3.8974	3.8574	-1.3181 H
87 H87	-3.4917	2.8567	-3.5807 H
88 H88	-2.9163	1.7955	-2.2827 H
89 H89	-1.7555	2.7497	-3.2237 H
90 O90	2.9963	-4.8603	0.8124 O
91 H91	2.5211	-6.0036	-0.7991 H
92 C92	2.6992	-5.9421	0.2932 C
93 C93	2.5477	-7.2534	1.0377 C
94 C94	2.8824	-7.1167	2.5286 C
95 H95	3.9372	-6.8534	2.6653 H
96 H96	2.6917	-8.0587	3.0539 H
97 H97	2.2858	-6.3280	2.9963 H
98 C98	3.3833	-8.3498	0.3334 C
99 H99	1.4842	-7.5329	0.9276 H
100 H100	3.1383	-8.4224	-0.7332 H
101 H101	3.1909	-9.3254	0.7913 H
102 H102	4.4551	-8.1380	0.4237 H
103 O103	3.1605	-4.8640	1.0158 O
104 H104	1.7554	-4.9036	-0.4520 H
105 C105	2.5784	-5.4226	0.0791 C
106 C106	2.8939	-6.8115	-0.4387 C
107 C107	4.0900	-7.4431	0.2852 C
108 H108	5.0049	-6.8723	0.0907 H
109 H109	4.2469	-8.4720	-0.0560 H
110 H110	3.9355	-7.4531	1.3682 H
111 C111	3.0798	-6.7631	-1.9747 C
112 H112	1.9886	-7.4126	-0.2386 H
113 H113	2.2205	-6.2967	-2.4715 H
114 H114	3.1924	-7.7759	-2.3747 H
115 H115	3.9777	-6.1922	-2.2385 H
116 O116	-0.3132	5.4571	-4.0400 O
117 H117	0.1777	4.2312	-5.5847 H
118 C118	0.2124	4.4353	-4.4957 C
119 C119	0.9331	3.3854	-3.6740 C
120 C120	1.0135	3.7643	-2.1896 C
121 H121	1.6168	4.6689	-2.0538 H
122 H122	1.4708	2.9552	-1.6101 H
123 H123	0.0201	3.9700	-1.7804 H
124 C124	2.3215	3.1017	-4.2968 C
125 H125	0.3327	2.4640	-3.7824 H
126 H126	2.2431	2.8457	-5.3604 H
127 H127	2.8034	2.2640	-3.7824 H
128 H128	2.9742	3.9777	-4.2039 H
129 O129	5.4690	-3.1113	-1.1739 O
130 H130	7.1078	-2.8078	-2.3368 H
131 C131	6.2619	-3.4658	-2.0536 C
132 C132	6.1879	-4.7721	-2.8183 C
133 C133	5.0444	-5.6688	-2.3265 C
134 H134	5.2139	-5.9771	-1.2888 H
135 H135	4.9680	-6.5694	-2.9451 H
136 H136	4.0871	-5.1403	-2.3578 H
137 C137	7.5649	-5.4780	-2.7745 C
138 H138	6.0008	-4.4874	-3.8695 H
139 H139	8.3696	-4.8164	-3.1174 H
140 H140	7.5576	-6.3629	-3.4190 H
141 H141	7.8015	-5.8029	-1.7546 H
142 O142	4.4931	-3.6059	-1.8026 O
143 H143	3.8179	-4.4088	-3.5431 H
144 C144	4.5372	-4.4540	-2.7009 C
145 C145	5.5235	-5.6027	-2.7671 C
146 C146	6.5381	-5.5637	-1.6170 C
147 H147	7.1666	-4.6689	-1.6862 H
148 H148	7.1884	-6.4445	-1.6474 H
149 H149	6.0337	-5.5342	-0.6467 H
150 C150	6.1972	-5.6287	-4.1605 C
151 H151	4.9130	-6.5198	-2.6829 H
152 H152	5.4554	-5.6432	-4.9682 H
153 H153	6.8240	-6.5206	-4.2617 H
154 H154	6.8353	-4.7481	-4.2990 H
155 O155	-5.2142	1.5148	-5.0232 O
156 H156	-5.9789	1.7321	-3.1528 H
157 C157	-5.1111	1.4729	-3.7920 C
158 C158	-3.8569	1.0840	-3.0353 C
159 C159	-2.7193	0.6630	-3.9746 C
160 H160	-2.9894	-0.2443	-4.5263 H
161 H161	-1.8054	0.4608	-3.4058 H
162 H162	-2.5075	1.4427	-4.7121 H
163 C163	-4.1996	-0.0001	-1.9848 C
164 H164	-3.5546	1.9910	-2.4812 H
165 H165	-5.0230	0.3149	-1.3324 H
166 H166	-3.3286	-0.2051	-1.3541 H
167 H167	-4.4915	-0.9362	-2.4750 H
168 O168	-7.1504	1.7348	0.1082 O
169 H169	-6.1264	3.1967	-0.8635 H
170 C170	-6.1482	2.1571	-0.4795 C
171 C171	-4.8879	1.3563	-0.7386 C
172 C172	-4.9518	-0.0444	-0.1161 C
173 H173	-5.0061	0.0203	0.9763 H
174 H174	-4.0623	-0.6252	-0.3829 H
175 H175	-5.8390	-0.5870	-0.4555 H
176 C176	-3.6536	2.1649	-0.2707 C
177 H177	-4.8193	1.2633	-1.8376 H
178 H178	-3.6337	3.1667	-0.7166 H
179 H179	-2.7317	1.6490	-0.5579 H
180 H180	-3.6543	2.2766	0.8199 H
181 O181	-3.7494	5.2708	-1.5773 O
182 H182	-2.2943	5.7289	-0.2345 H
183 C183	-2.9339	4.9546	-0.7037 C
184 C184	-2.7123	3.5473	-0.1869 C
185 C185	-3.6794	2.5378	-0.8187 C
186 H186	-4.7137	2.7650	-0.5370 H
187 H187	-3.4470	1.5210	-0.4845 H
188 H188	-3.6242	2.5687	-1.9108 H
189 C189	-2.7711	3.5470	1.3600 C
190 H190	-1.6771	3.2882	-0.4739 H
191 H191	-2.0825	4.2838	1.7910 H
192 H192	-2.4976	2.5610	1.7493 H
193 H193	-3.7836	3.7809	1.7093 H
194 O194	5.9129	-0.5715	-2.1196 O
195 H195	5.9101	1.3091	-2.8898 H
196 C196	6.4905	0.4648	-2.4667 C
197 C197	7.9833	0.7059	-2.3659 C
198 C198	8.7173	-0.4666	-1.7024 C
199 H199	8.3958	-0.5845	-0.6616 H
200 H200	9.7994	-0.2980	-1.7116 H
201 H201	8.5051	-1.4076	-2.2182 H
202 C202	8.2442	2.0562	-1.6553 C
203 H203	8.3350	0.8126	-3.4080 H
204 H204	7.7008	2.8782	-2.1367 H
205 H205	9.3119	2.2971	-1.6799 H
206 H206	7.9312	2.0086	-0.6057 H
207 O207	-3.6734	6.4587	-0.0460 O
208 H208	-2.2968	6.2747	-1.5297 H
209 C209	-3.0415	5.7869	-0.8692 C
210 C210	-3.1917	4.2928	-1.0737 C
211 C211	-4.1778	3.6669	-0.0791 C
212 H212	-3.8030	3.7588	0.9464 H
213 H213	-4.3232	2.6037	-0.2985 H
214 H214	-5.1492	4.1685	-0.1179 H
215 C215	-1.7973	3.6214	-1.0390 C
216 H216	-3.5850	4.1744	-2.0996 H
217 H217	-1.1043	4.0914	-1.7472 H
218 H218	-1.8806	2.5616	-1.3009 H
219 H219	-1.3592	3.6897	-0.0364 H
220 O220	5.2723	-3.9721	0.9162 O
221 H221	6.6292	-4.5896	-0.4650 H
222 C222	5.7120	-4.8076	0.1182 C
223 C223	5.0920	-6.1635	-0.1538 C
224 C224	3.8741	-6.4345	0.7389 C
225 H225	4.1706	-6.4839	1.7926 H
226 H226	3.4030	-7.3856	0.4688 H
227 H227	3.1313	-5.6369	0.6459 H
228 C228	6.1762	-7.2624	-0.0392 C
229 H229	4.7693	-6.1327	-1.2102 H
230 H230	7.0429	-7.0434	-0.6746 H
231 H231	5.7681	-8.2306	-0.3468 H
232 H232	6.5263	-7.3550	0.9955 H
233 O233	-1.6627	-1.9268	-5.5251 O
234 H234	-2.6834	-3.5889	-6.0959 H
235 C235	-2.6415	-2.4828	-6.0359 C
236 C236	-3.8459	-1.7679	-6.6148 C
237 C237	-3.7620	-0.2471	-6.4312 C
238 H238	-3.7825	0.0155	-5.3676 H
239 H239	-4.6058	0.2473	-6.9242 H
240 H240	-2.8316	0.1500	-6.8476 H
241 C241	-5.1424	-2.3728	-6.0237 C
242 H242	-3.8380	-2.0051	-7.6940 H
243 H243	-5.1767	-3.4613	-6.1536 H
244 H244	-6.0200	-1.9457	-6.5195 H
245 H245	-5.2182	-2.1545	-4.9520 H
246 O246	4.6479	-7.1643	-4.6837 O
247 H247	2.7571	-7.7768	-4.2596 H
248 C248	3.4645	-6.9364	-4.4084 C
249 C249	2.8576	-5.5572	-4.2466 C
250 C250	3.9025	-4.4429	-4.3877 C
251 H251	4.6435	-4.5037	-3.5829 H
252 H252	3.4242	-3.4586	-4.3418 H
253 H253	4.4424	-4.5260	-5.3355 H
254 C254	2.0810	-5.4854	-2.9094 C
255 H255	2.1153	-5.4653	-5.0600 H
256 H256	1.3490	-6.2974	-2.8227 H
257 H257	1.5420	-4.5354	-2.8349 H
258 H258	2.7684	-5.5533	-2.0580 H
@<TRIPOS>BOND
1 1 2 2
2 1 3 1
3 1 16 1
4 3 4 1
5 5 6 1
6 5 7 1
7 5 8 2
8 8 9 1
9 8 15 1
10 9 10 1
11 9 11 1
12 9 12 1
13 13 14 1
14 13 17 1
15 13 18 1
16 13 19 1
17 14 15 1
18 14 20 1
19 14 21 1
20 15 16 1
21 16 17 1
22 16 22 1
23 17 23 1
24 17 24 1
25 25 27 2
26 26 27 1
27 27 28 1
28 28 29 1
29 28 33 1
30 28 34 1
31 29 30 1
32 29 31 1
33 29 32 1
34 33 35 1
35 33 36 1
36 33 37 1
37 38 40 2
38 39 40 1
39 40 41 1
40 41 42 1
41 41 46 1
42 41 47 1
43 42 43 1
44 42 44 1
45 42 45 1
46 46 48 1
47 46 49 1
48 46 50 1
49 51 53 2
50 52 53 1
51 53 54 1
52 54 55 1
53 54 59 1
54 54 60 1
55 55 56 1
56 55 57 1
57 55 58 1
58 59 61 1
59 59 62 1
60 59 63 1
61 64 66 2
62 65 66 1
63 66 67 1
64 67 68 1
65 67 72 1
66 67 73 1
67 68 69 1
68 68 70 1
69 68 71 1
70 72 74 1
71 72 75 1
72 72 76 1
73 77 79 2
74 78 79 1
75 79 80 1
76 80 81 1
77 80 85 1
78 80 86 1
79 81 82 1
80 81 83 1
81 81 84 1
82 85 87 1
83 85 88 1
84 85 89 1
85 90 92 2
86 91 92 1
87 92 93 1
88 93 94 1
89 93 98 1
90 93 99 1
91 94 95 1
92 94 96 1
93 94 97 1
94 98 100 1
95 98 101 1
96 98 102 1
97 103 105 2
98 104 105 1
99 105 106 1
100 106 107 1
101 106 111 1
102 106 112 1
103 107 108 1
104 107 109 1
105 107 110 1
106 111 113 1
107 111 114 1
108 111 115 1
109 116 118 2
110 117 118 1
111 118 119 1
112 119 120 1
113 119 124 1
114 119 125 1
115 120 121 1
116 120 122 1
117 120 123 1
118 124 126 1
119 124 127 1
120 124 128 1
121 129 131 2
122 130 131 1
123 131 132 1
124 132 133 1
125 132 137 1
126 132 138 1
127 133 134 1
128 133 135 1
129 133 136 1
130 137 139 1
131 137 140 1
132 137 141 1
133 142 144 2
134 143 144 1
135 144 145 1
136 145 146 1
137 145 150 1
138 145 151 1
139 146 147 1
140 146 148 1
141 146 149 1
142 150 152 1
143 150 153 1
144 150 154 1
145 155 157 2
146 156 157 1
147 157 158 1
148 158 159 1
149 158 163 1
150 158 164 1
151 159 160 1
152 159 161 1
153 159 162 1
154 163 165 1
155 163 166 1
156 163 167 1
157 168 170 2
158 169 170 1
159 170 171 1
160 171 172 1
161 171 176 1
162 171 177 1
163 172 173 1
164 172 174 1
165 172 175 1
166 176 178 1
167 176 179 1
168 176 180 1
169 181 183 2
170 182 183 1
171 183 184 1
172 184 185 1
173 184 189 1
174 184 190 1
175 185 186 1
176 185 187 1
177 185 188 1
178 189 191 1
179 189 192 1
180 189 193 1
181 194 196 2
182 195 196 1
183 196 197 1
184 197 198 1
185 197 202 1
186 197 203 1
187 198 199 1
188 198 200 1
189 198 201 1
190 202 204 1
191 202 205 1
192 202 206 1
193 207 209 2
194 208 209 1
195 209 210 1
196 210 211 1
197 210 215 1
198 210 216 1
199 211 212 1
200 211 213 1
201 211 214 1
202 215 217 1
203 215 218 1
204 215 219 1
205 220 222 2
206 221 222 1
207 222 223 1
208 223 224 1
209 223 228 1
210 223 229 1
211 224 225 1
212 224 226 1
213 224 227 1
214 228 230 1
215 228 231 1
216 228 232 1
217 233 235 2
218 234 235 1
219 235 236 1
220 236 237 1
221 236 241 1
222 236 242 1
223 237 238 1
224 237 239 1
225 237 240 1
226 241 243 1
227 241 244 1
228 241 245 1
229 246 248 2
230 247 248 1
231 248 249 1
232 249 250 1
233 249 254 1
234 249 255 1
235 250 251 1
236 250 252 1
237 250 253 1
238 254 256 1
239 254 257 1
240 254 258 1
