@<TRIPOS>MOLECULE
Molecule Name
388 360
SMALL
NO_CHARGES

@<TRIPOS>ATOM
1 C1	0.0000	0.0000	0.0000 C
2 O2	-1.2347	0.0000	0.0000 O
3 O3	0.7299	1.1715	0.0000 O
4 H4	0.1277	1.9474	-0.0239 H
5 N5	1.8600	-1.2616	-1.0929 N
6 C6	3.0751	-0.6092	0.8637 C
7 C7	3.1961	-0.8175	-0.6630 C
8 C8	2.4721	-1.3227	-3.4265 C
9 H9	3.4738	-0.9518	-3.2521 H
10 H10	2.2131	-1.5605	-4.4503 H
11 C11	1.5646	-1.5038	-2.4383 C
12 C12	0.1771	-2.0333	-2.7349 C
13 H13	-0.6129	-1.3593	-2.3830 H
14 H14	0.0526	-2.1641	-3.8117 H
15 H15	0.0098	-3.0073	-2.2560 H
16 C16	0.8812	-1.2464	-0.0050 C
17 C17	1.7731	-1.3436	1.2594 C
18 H18	3.9428	-1.0025	1.4017 H
19 H19	2.9877	0.4561	1.0911 H
20 H20	3.9379	-1.5844	-0.9281 H
21 H21	3.4848	0.1114	-1.1735 H
22 H22	0.1905	-2.0899	-0.0736 H
23 H23	1.2959	-0.9176	2.1469 H
24 H24	1.9682	-2.4035	1.4568 H
25 O25	-0.4670	3.8786	1.0728 O
26 H26	-1.1180	3.2730	2.9002 H
27 C27	-1.1171	4.0505	2.1101 C
28 C28	-1.9515	5.2764	2.4224 C
29 C29	-1.8461	6.3450	1.3267 C
30 H30	-0.8224	6.7298	1.2594 H
31 H31	-2.5160	7.1843	1.5418 H
32 H32	-2.1049	5.9326	0.3471 H
33 C33	-1.5771	5.8158	3.8243 C
34 H34	-2.9943	4.9156	2.4798 H
35 H35	-1.6463	5.0339	4.5902 H
36 H36	-2.2520	6.6290	4.1099 H
37 H37	-0.5532	6.2075	3.8280 H
38 O38	-1.9442	2.8004	-0.5307 O
39 H39	-3.9269	2.6848	-0.9614 H
40 C40	-3.0384	3.3209	-0.7751 C
41 C41	-3.2969	4.8124	-0.8483 C
42 C42	-2.0485	5.6355	-0.5053 C
43 H43	-1.7491	5.4680	0.5353 H
44 H44	-2.2436	6.7049	-0.6396 H
45 H45	-1.2026	5.3517	-1.1382 H
46 C46	-4.5146	5.1723	0.0372 C
47 H47	-3.5863	5.0097	-1.8963 H
48 H48	-5.3918	4.5644	-0.2150 H
49 H49	-4.7832	6.2250	-0.0978 H
50 H50	-4.2832	5.0144	1.0970 H
51 O51	1.2745	-4.5130	2.0521 O
52 H52	1.5657	-6.3249	2.9253 H
53 C53	0.9349	-5.6792	2.2818 C
54 C54	-0.3170	-6.3440	1.7455 C
55 C55	-1.1834	-5.3767	0.9286 C
56 H56	-1.5625	-4.5677	1.5628 H
57 H57	-2.0396	-5.9020	0.4919 H
58 H58	-0.6066	-4.9158	0.1214 H
59 C59	-1.0924	-7.0065	2.9100 C
60 H60	0.0404	-7.1567	1.0877 H
61 H61	-0.4524	-7.6835	3.4887 H
62 H62	-1.9349	-7.5878	2.5217 H
63 H63	-1.4904	-6.2465	3.5924 H
64 O64	-0.7895	-4.6121	-0.8213 O
65 H65	0.3900	-5.7284	0.4005 H
66 C66	-0.4220	-5.6957	-0.3534 C
67 C67	-0.9991	-7.0465	-0.7263 C
68 C68	-2.1677	-6.9262	-1.7129 C
69 H69	-3.0087	-6.3953	-1.2530 H
70 H70	-2.5143	-7.9182	-2.0218 H
71 H71	-1.8751	-6.3641	-2.6046 H
72 C72	-1.3765	-7.8224	0.5589 C
73 H73	-0.1711	-7.5971	-1.2083 H
74 H74	-0.5320	-7.8858	1.2558 H
75 H75	-1.6851	-8.8426	0.3086 H
76 H76	-2.2099	-7.3330	1.0763 H
77 O77	0.5487	-4.2067	1.5622 O
78 H78	-1.0429	-4.0243	2.8127 H
79 C79	-0.1960	-4.6400	2.4487 C
80 C80	-0.0588	-5.9928	3.1178 C
81 C81	1.0814	-6.8248	2.5168 C
82 H82	0.8726	-7.0663	1.4686 H
83 H83	1.2054	-7.7630	3.0682 H
84 H84	2.0271	-6.2756	2.5432 H
85 C85	-1.4202	-6.7287	3.0849 C
86 H86	0.1687	-5.7753	4.1771 H
87 H87	-2.2234	-6.1125	3.5067 H
88 H88	-1.3644	-7.6548	3.6661 H
89 H89	-1.6948	-6.9897	2.0561 H
90 O90	2.4867	-4.6418	1.4489 O
91 H91	3.0165	-6.1699	2.6795 H
92 C92	2.7228	-5.8360	1.6641 C
93 C93	2.6467	-6.9398	0.6284 C
94 C94	2.1611	-6.4258	-0.7331 C
95 H95	1.1321	-6.0561	-0.6620 H
96 H96	2.1882	-7.2273	-1.4791 H
97 H97	2.7820	-5.5973	-1.0865 H
98 C98	1.7836	-8.1038	1.1727 C
99 H99	3.6795	-7.3195	0.5267 H
100 H100	2.1391	-8.4475	2.1516 H
101 H101	1.8165	-8.9541	0.4838 H
102 H102	0.7375	-7.7936	1.2792 H
103 O103	-1.9868	2.8081	1.8457 O
104 H104	-2.8366	1.2139	2.7767 H
105 C105	-2.0868	2.0301	2.8011 C
106 C106	-1.2463	2.0846	4.0610 C
107 C107	-0.1786	3.1845	3.9994 C
108 H108	0.5462	2.9755	3.2047 H
109 H109	0.3618	3.2501	4.9498 H
110 H110	-0.6275	4.1586	3.7839 H
111 C111	-0.6500	0.6853	4.3482 C
112 H112	-1.9552	2.3108	4.8780 H
113 H113	-1.4274	-0.0879	4.3752 H
114 H114	-0.1378	0.6831	5.3158 H
115 H115	0.0792	0.4092	3.5776 H
116 O116	1.2544	-4.3200	-0.7677 O
117 H117	1.1975	-4.9228	-2.7077 H
118 C118	1.6141	-5.0607	-1.6897 C
119 C119	2.6151	-6.1911	-1.5594 C
120 C120	3.2107	-6.2793	-0.1483 C
121 H121	3.7930	-5.3802	0.0823 H
122 H122	3.8714	-7.1487	-0.0631 H
123 H123	2.4242	-6.3617	0.6075 H
124 C124	3.6960	-6.0567	-2.6594 C
125 H125	2.0460	-7.1140	-1.7726 H
126 H126	3.2494	-5.9821	-3.6583 H
127 H127	4.3571	-6.9292	-2.6494 H
128 H128	4.3098	-5.1639	-2.4924 H
129 O129	-2.3153	0.1101	-2.8928 O
130 H130	-2.7693	1.1890	-1.2316 H
131 C131	-2.9793	0.9656	-2.2968 C
132 C132	-4.1043	1.7769	-2.9075 C
133 C133	-4.2926	1.4767	-4.4002 C
134 H134	-3.4068	1.7790	-4.9699 H
135 H135	-5.1581	2.0190	-4.7957 H
136 H136	-4.4417	0.4066	-4.5718 H
137 C137	-3.8738	3.2808	-2.6226 C
138 H138	-5.0150	1.4769	-2.3582 H
139 H139	-3.7287	3.4722	-1.5525 H
140 H140	-4.7366	3.8662	-2.9563 H
141 H141	-2.9890	3.6454	-3.1575 H
142 O142	1.1806	-4.3596	0.2545 O
143 H143	1.6343	-6.2620	-0.2981 H
144 C144	1.5237	-5.5180	0.5162 C
145 C145	1.8218	-6.0457	1.9053 C
146 C146	1.7264	-4.9505	2.9753 C
147 H147	2.4914	-4.1832	2.8121 H
148 H148	1.8719	-5.3748	3.9745 H
149 H149	0.7528	-4.4525	2.9446 H
150 C150	3.1924	-6.7653	1.9041 C
151 H151	1.0509	-6.8130	2.1001 H
152 H152	3.2445	-7.5348	1.1243 H
153 H153	3.3661	-7.2509	2.8698 H
154 H154	4.0054	-6.0501	1.7327 H
155 O155	-3.7073	5.4969	-0.2451 O
156 H156	-4.0600	4.8628	-2.1434 H
157 C157	-3.6899	4.6288	-1.1251 C
158 C158	-3.1890	3.2105	-0.9401 C
159 C159	-2.6202	2.9743	0.4650 C
160 H160	-1.7321	3.5941	0.6316 H
161 H161	-2.3365	1.9243	0.5939 H
162 H162	-3.3508	3.2368	1.2358 H
163 C163	-2.1793	2.8661	-2.0617 C
164 H164	-4.0734	2.5647	-1.0880 H
165 H165	-2.6004	3.0540	-3.0567 H
166 H166	-1.8991	1.8092	-2.0077 H
167 H167	-1.2667	3.4648	-1.9587 H
168 O168	-1.7152	-1.5848	3.7945 O
169 H169	-1.5518	-0.2595	2.2625 H
170 C170	-2.1399	-0.6382	3.1224 C
171 C171	-3.4462	0.0893	3.3698 C
172 C172	-4.2470	-0.5311	4.5220 C
173 H173	-4.5544	-1.5528	4.2727 H
174 H174	-5.1467	0.0589	4.7268 H
175 H175	-3.6475	-0.5842	5.4355 H
176 C176	-4.2542	0.1680	2.0519 C
177 H177	-3.1610	1.1223	3.6396 H
178 H178	-3.6601	0.6020	1.2385 H
179 H179	-5.1440	0.7909	2.1897 H
180 H180	-4.5836	-0.8297	1.7391 H
181 O181	-6.6394	-3.2394	1.7778 O
182 H182	-6.8729	-2.1503	0.0779 H
183 C183	-6.1852	-2.6069	0.8178 C
184 C184	-4.7122	-2.3836	0.5398 C
185 C185	-3.8182	-2.9722	1.6389 C
186 H186	-3.9898	-2.4600	2.5922 H
187 H187	-2.7609	-2.8630	1.3747 H
188 H188	-4.0322	-4.0335	1.7954 H
189 C189	-4.4521	-0.8769	0.2979 C
190 H190	-4.5100	-2.9064	-0.4125 H
191 H191	-5.1095	-0.4731	-0.4815 H
192 H192	-3.4161	-0.7173	-0.0181 H
193 H193	-4.6190	-0.3025	1.2166 H
194 O194	-6.7061	-2.3826	2.7124 O
195 H195	-5.2842	-1.6208	3.9486 H
196 C196	-5.6409	-1.7881	2.9125 C
197 C197	-4.7323	-1.2401	1.8303 C
198 C198	-5.2418	-1.5716	0.4217 C
199 H199	-5.2340	-2.6542	0.2528 H
200 H200	-4.6086	-1.1001	-0.3375 H
201 H201	-6.2707	-1.2268	0.2829 H
202 C202	-3.2831	-1.7264	2.0739 C
203 H203	-4.7363	-0.1440	1.9702 H
204 H204	-2.9430	-1.4915	3.0897 H
205 H205	-2.5983	-1.2445	1.3686 H
206 H206	-3.2091	-2.8108	1.9315 H
207 O207	-6.0305	3.6997	1.0074 O
208 H208	-5.3991	4.1839	-0.8626 H
209 C209	-5.2282	3.6114	0.0711 C
210 C210	-3.9759	2.7579	0.0743 C
211 C211	-3.7566	2.0537	1.4195 C
212 H212	-3.5814	2.7863	2.2152 H
213 H213	-2.8891	1.3871	1.3681 H
214 H214	-4.6338	1.4655	1.7046 H
215 C215	-2.7621	3.6155	-0.3587 C
216 H216	-4.1356	1.9984	-0.7123 H
217 H217	-2.9441	4.1201	-1.3153 H
218 H218	-1.8744	2.9851	-0.4729 H
219 H219	-2.5402	4.3809	0.3941 H
220 O220	-2.3962	1.4177	-2.5250 O
221 H221	-2.6842	-0.4312	-1.7323 H
222 C222	-3.1206	0.4637	-2.2196 C
223 C223	-4.6158	0.3940	-2.4566 C
224 C224	-5.1689	1.6911	-3.0611 C
225 H225	-5.0489	2.5255	-2.3611 H
226 H226	-6.2344	1.5849	-3.2910 H
227 H227	-4.6372	1.9565	-3.9796 H
228 C228	-5.3312	-0.0089	-1.1444 C
229 H229	-4.7615	-0.4332	-3.1746 H
230 H230	-4.9127	-0.9305	-0.7221 H
231 H231	-6.3971	-0.1761	-1.3300 H
232 H232	-5.2378	0.7839	-0.3929 H
233 O233	-7.7486	-0.5612	-1.2330 O
234 H234	-7.2178	0.5227	0.4021 H
235 C235	-6.9281	0.0896	-0.5763 C
236 C236	-5.4986	0.3665	-0.9967 C
237 C237	-5.1382	-0.3235	-2.3187 C
238 H238	-5.1772	-1.4130	-2.2092 H
239 H239	-4.1272	-0.0451	-2.6350 H
240 H240	-5.8409	-0.0497	-3.1111 H
241 C241	-4.5366	-0.0077	0.1569 C
242 H242	-5.4380	1.4618	-1.1294 H
243 H243	-4.8190	0.4852	1.0950 H
244 H244	-3.5138	0.2956	-0.0893 H
245 H245	-4.5378	-1.0907	0.3266 H
246 O246	-4.7743	5.7777	-1.5975 O
247 H247	-4.0169	4.3340	-2.8108 H
248 C248	-4.2391	4.6786	-1.7809 C
249 C249	-3.8383	3.7109	-0.6856 C
250 C250	-4.1007	4.2787	0.7153 C
251 H251	-3.4768	5.1607	0.8979 H
252 H252	-3.8729	3.5310	1.4825 H
253 H253	-5.1440	4.5881	0.8266 H
254 C254	-2.3670	3.2756	-0.8904 C
255 H255	-4.4676	2.8157	-0.8392 H
256 H256	-2.1977	2.8852	-1.9012 H
257 H257	-2.1016	2.4896	-0.1760 H
258 H258	-1.6872	4.1210	-0.7328 H
259 O259	-6.4026	-2.0559	1.9272 O
260 H260	-6.5578	-1.9851	-0.0980 H
261 C261	-5.9221	-1.8721	0.8031 C
262 C262	-4.4827	-1.4895	0.5227 C
263 C263	-3.6780	-1.2733	1.8108 C
264 H264	-4.0743	-0.4223	2.3759 H
265 H265	-2.6265	-1.0729	1.5787 H
266 H266	-3.7318	-2.1509	2.4617 H
267 C267	-4.4460	-0.2627	-0.4206 C
268 H268	-4.0550	-2.3424	-0.0348 H
269 H269	-5.0373	-0.4327	-1.3285 H
270 H270	-3.4160	-0.0486	-0.7236 H
271 H271	-4.8430	0.6259	0.0839 H
272 O272	5.4304	-2.6306	2.0468 O
273 H273	6.4716	-1.3323	0.8805 H
274 C274	6.4867	-2.1119	1.6683 C
275 C275	7.8644	-2.4527	2.2001 C
276 C276	7.8095	-3.4790	3.3391 C
277 H277	7.2839	-3.0654	4.2070 H
278 H278	8.8205	-3.7619	3.6513 H
279 H279	7.2726	-4.3812	3.0317 H
280 C280	8.6028	-1.1522	2.5996 C
281 H281	8.4107	-2.8880	1.3439 H
282 H282	8.6196	-0.4274	1.7767 H
283 H283	9.6389	-1.3743	2.8751 H
284 H284	8.1166	-0.6794	3.4609 H
285 O285	5.7581	-0.7097	-3.1521 O
286 H286	7.5895	0.1665	-3.2440 H
287 C287	6.5769	0.0511	-3.6802 C
288 C288	6.3210	0.8799	-4.9229 C
289 C289	4.9327	0.6169	-5.5204 C
290 H290	4.8522	-0.4185	-5.8697 H
291 H291	4.7469	1.2825	-6.3701 H
292 H292	4.1466	0.7722	-4.7756 H
293 C293	7.4648	0.6551	-5.9414 C
294 H294	6.3813	1.9325	-4.5919 H
295 H295	8.4485	0.8356	-5.4913 H
296 H296	7.3531	1.3347	-6.7925 H
297 H297	7.4474	-0.3724	-6.3230 H
298 O298	0.0968	-3.4725	-5.8415 O
299 H299	1.1748	-3.9495	-7.4970 H
300 C300	0.6568	-3.1711	-6.9016 C
301 C301	0.7071	-1.7774	-7.4949 C
302 C302	-0.0921	-0.7641	-6.6653 C
303 H303	-1.1583	-1.0167	-6.6691 H
304 H304	0.0241	0.2452	-7.0744 H
305 H305	0.2386	-0.7595	-5.6225 H
306 C306	0.2585	-1.8271	-8.9756 C
307 H307	1.7748	-1.4928	-7.4870 H
308 H308	0.8327	-2.5660	-9.5475 H
309 H309	0.4012	-0.8496	-9.4476 H
310 H310	-0.8036	-2.0881	-9.0501 H
311 O311	-5.5427	5.2008	-1.2823 O
312 H312	-3.7989	6.0241	-0.6407 H
313 C313	-4.3375	5.1310	-1.0165 C
314 C314	-3.4840	3.8869	-1.1604 C
315 C315	-4.3030	2.6698	-1.6091 C
316 H316	-5.0420	2.3989	-0.8468 H
317 H317	-3.6497	1.8070	-1.7773 H
318 H318	-4.8494	2.8806	-2.5331 H
319 C319	-2.7071	3.6354	0.1546 C
320 H320	-2.7380	4.1305	-1.9384 H
321 H321	-2.1391	4.5209	0.4645 H
322 H322	-2.0004	2.8093	0.0250 H
323 H323	-3.3946	3.3697	0.9661 H
324 O324	-5.6430	-4.6380	-0.1238 O
325 H325	-5.7422	-3.0302	1.1153 H
326 C326	-5.1984	-3.5713	0.3152 C
327 C327	-3.9237	-2.8995	-0.1545 C
328 C328	-3.1799	-3.7351	-1.2044 C
329 H329	-2.8381	-4.6825	-0.7729 H
330 H330	-2.3057	-3.1923	-1.5796 H
331 H331	-3.8309	-3.9773	-2.0495 H
332 C332	-3.0411	-2.5484	1.0678 C
333 H333	-4.2447	-1.9451	-0.6097 H
334 H334	-3.5948	-1.9627	1.8116 H
335 H335	-2.1736	-1.9599	0.7521 H
336 H336	-2.6741	-3.4593	1.5551 H
337 O337	-3.6422	3.9987	-3.7259 O
338 H338	-3.4660	2.8674	-5.4050 H
339 C339	-3.4900	2.9133	-4.2977 C
340 C340	-3.3254	1.5772	-3.6015 C
341 C341	-3.2896	1.7188	-2.0744 C
342 H342	-2.4109	2.2929	-1.7599 H
343 H343	-3.2463	0.7338	-1.5974 H
344 H344	-4.1738	2.2475	-1.7063 H
345 C345	-2.0820	0.8477	-4.1656 C
346 H346	-4.2111	0.9835	-3.8914 H
347 H347	-2.1208	0.7685	-5.2587 H
348 H348	-2.0189	-0.1654	-3.7556 H
349 H349	-1.1636	1.3813	-3.8944 H
350 O350	-3.2826	6.9479	-1.8826 O
351 H351	-1.6169	6.7538	-3.0305 H
352 C352	-2.3642	6.2761	-2.3656 C
353 C353	-2.1494	4.7950	-2.1270 C
354 C354	-3.1685	4.2122	-1.1394 C
355 H355	-3.0466	4.6620	-0.1478 H
356 H356	-3.0368	3.1290	-1.0448 H
357 H357	-4.1933	4.4132	-1.4653 H
358 C358	-0.6843	4.5462	-1.6937 C
359 H359	-2.2834	4.3157	-3.1136 H
360 H360	0.0275	4.9814	-2.4055 H
361 H361	-0.4850	3.4715	-1.6313 H
362 H362	-0.4921	4.9847	-0.7075 H
363 O363	4.3115	-7.5908	-6.5289 O
364 H364	3.6429	-6.1278	-7.7710 H
365 C365	4.0799	-6.4051	-6.7907 C
366 C366	4.3470	-5.2390	-5.8602 C
367 C367	4.8774	-5.6954	-4.4950 C
368 H368	4.1239	-6.2903	-3.9668 H
369 H369	5.1321	-4.8311	-3.8724 H
370 H370	5.7679	-6.3211	-4.6066 H
371 C371	3.0756	-4.3632	-5.7474 C
372 H372	5.1185	-4.6303	-6.3654 H
373 H373	2.7055	-4.0586	-6.7339 H
374 H374	3.2900	-3.4565	-5.1725 H
375 H375	2.2739	-4.9081	-5.2354 H
376 O376	7.5762	4.1265	-2.5329 O
377 H377	5.8437	4.4965	-3.5287 H
378 C378	6.4492	3.7964	-2.9187 C
379 C379	5.7827	2.4670	-2.6264 C
380 C380	6.7005	1.5165	-1.8467 C
381 H381	7.5779	1.2484	-2.4459 H
382 H382	6.1680	0.5960	-1.5848 H
383 H383	7.0638	1.9847	-0.9272 H
384 C384	5.2590	1.8479	-3.9450 C
385 H385	4.9003	2.7102	-2.0074 H
386 H386	4.6161	2.5473	-4.4929 H
387 H387	4.6747	0.9463	-3.7342 H
388 H388	6.0927	1.5667	-4.5990 H
@<TRIPOS>BOND
1 1 2 2
2 1 3 1
3 1 16 1
4 3 4 1
5 5 7 1
6 5 11 1
7 5 16 1
8 6 7 1
9 6 17 1
10 6 18 1
11 6 19 1
12 7 20 1
13 7 21 1
14 8 9 1
15 8 10 1
16 8 11 2
17 11 12 1
18 12 13 1
19 12 14 1
20 12 15 1
21 16 17 1
22 16 22 1
23 17 23 1
24 17 24 1
25 25 27 2
26 26 27 1
27 27 28 1
28 28 29 1
29 28 33 1
30 28 34 1
31 29 30 1
32 29 31 1
33 29 32 1
34 33 35 1
35 33 36 1
36 33 37 1
37 38 40 2
38 39 40 1
39 40 41 1
40 41 42 1
41 41 46 1
42 41 47 1
43 42 43 1
44 42 44 1
45 42 45 1
46 46 48 1
47 46 49 1
48 46 50 1
49 51 53 2
50 52 53 1
51 53 54 1
52 54 55 1
53 54 59 1
54 54 60 1
55 55 56 1
56 55 57 1
57 55 58 1
58 59 61 1
59 59 62 1
60 59 63 1
61 64 66 2
62 65 66 1
63 66 67 1
64 67 68 1
65 67 72 1
66 67 73 1
67 68 69 1
68 68 70 1
69 68 71 1
70 72 74 1
71 72 75 1
72 72 76 1
73 77 79 2
74 78 79 1
75 79 80 1
76 80 81 1
77 80 85 1
78 80 86 1
79 81 82 1
80 81 83 1
81 81 84 1
82 85 87 1
83 85 88 1
84 85 89 1
85 90 92 2
86 91 92 1
87 92 93 1
88 93 94 1
89 93 98 1
90 93 99 1
91 94 95 1
92 94 96 1
93 94 97 1
94 98 100 1
95 98 101 1
96 98 102 1
97 103 105 2
98 104 105 1
99 105 106 1
100 106 107 1
101 106 111 1
102 106 112 1
103 107 108 1
104 107 109 1
105 107 110 1
106 111 113 1
107 111 114 1
108 111 115 1
109 116 118 2
110 117 118 1
111 118 119 1
112 119 120 1
113 119 124 1
114 119 125 1
115 120 121 1
116 120 122 1
117 120 123 1
118 124 126 1
119 124 127 1
120 124 128 1
121 129 131 2
122 130 131 1
123 131 132 1
124 132 133 1
125 132 137 1
126 132 138 1
127 133 134 1
128 133 135 1
129 133 136 1
130 137 139 1
131 137 140 1
132 137 141 1
133 142 144 2
134 143 144 1
135 144 145 1
136 145 146 1
137 145 150 1
138 145 151 1
139 146 147 1
140 146 148 1
141 146 149 1
142 150 152 1
143 150 153 1
144 150 154 1
145 155 157 2
146 156 157 1
147 157 158 1
148 158 159 1
149 158 163 1
150 158 164 1
151 159 160 1
152 159 161 1
153 159 162 1
154 163 165 1
155 163 166 1
156 163 167 1
157 168 170 2
158 169 170 1
159 170 171 1
160 171 172 1
161 171 176 1
162 171 177 1
163 172 173 1
164 172 174 1
165 172 175 1
166 176 178 1
167 176 179 1
168 176 180 1
169 181 183 2
170 182 183 1
171 183 184 1
172 184 185 1
173 184 189 1
174 184 190 1
175 185 186 1
176 185 187 1
177 185 188 1
178 189 191 1
179 189 192 1
180 189 193 1
181 194 196 2
182 195 196 1
183 196 197 1
184 197 198 1
185 197 202 1
186 197 203 1
187 198 199 1
188 198 200 1
189 198 201 1
190 202 204 1
191 202 205 1
192 202 206 1
193 207 209 2
194 208 209 1
195 209 210 1
196 210 211 1
197 210 215 1
198 210 216 1
199 211 212 1
200 211 213 1
201 211 214 1
202 215 217 1
203 215 218 1
204 215 219 1
205 220 222 2
206 221 222 1
207 222 223 1
208 223 224 1
209 223 228 1
210 223 229 1
211 224 225 1
212 224 226 1
213 224 227 1
214 228 230 1
215 228 231 1
216 228 232 1
217 233 235 2
218 234 235 1
219 235 236 1
220 236 237 1
221 236 241 1
222 236 242 1
223 237 238 1
224 237 239 1
225 237 240 1
226 241 243 1
227 241 244 1
228 241 245 1
229 246 248 2
230 247 248 1
231 248 249 1
232 249 250 1
233 249 254 1
234 249 255 1
235 250 251 1
236 250 252 1
237 250 253 1
238 254 256 1
239 254 257 1
240 254 258 1
241 259 261 2
242 260 261 1
243 261 262 1
244 262 263 1
245 262 267 1
246 262 268 1
247 263 264 1
248 263 265 1
249 263 266 1
250 267 269 1
251 267 270 1
252 267 271 1
253 272 274 2
254 273 274 1
255 274 275 1
256 275 276 1
257 275 280 1
258 275 281 1
259 276 277 1
260 276 278 1
261 276 279 1
262 280 282 1
263 280 283 1
264 280 284 1
265 285 287 2
266 286 287 1
267 287 288 1
268 288 289 1
269 288 293 1
270 288 294 1
271 289 290 1
272 289 291 1
273 289 292 1
274 293 295 1
275 293 296 1
276 293 297 1
277 298 300 2
278 299 300 1
279 300 301 1
280 301 302 1
281 301 306 1
282 301 307 1
283 302 303 1
284 302 304 1
285 302 305 1
286 306 308 1
287 306 309 1
288 306 310 1
289 311 313 2
290 312 313 1
291 313 314 1
292 314 315 1
293 314 319 1
294 314 320 1
295 315 316 1
296 315 317 1
297 315 318 1
298 319 321 1
299 319 322 1
300 319 323 1
301 324 326 2
302 325 326 1
303 326 327 1
304 327 328 1
305 327 332 1
306 327 333 1
307 328 329 1
308 328 330 1
309 328 331 1
310 332 334 1
311 332 335 1
312 332 336 1
313 337 339 2
314 338 339 1
315 339 340 1
316 340 341 1
317 340 345 1
318 340 346 1
319 341 342 1
320 341 343 1
321 341 344 1
322 345 347 1
323 345 348 1
324 345 349 1
325 350 352 2
326 351 352 1
327 352 353 1
328 353 354 1
329 353 358 1
330 353 359 1
331 354 355 1
332 354 356 1
333 354 357 1
334 358 360 1
335 358 361 1
336 358 362 1
337 363 365 2
338 364 365 1
339 365 366 1
340 366 367 1
341 366 371 1
342 366 372 1
343 367 368 1
344 367 369 1
345 367 370 1
346 371 373 1
347 371 374 1
348 371 375 1
349 376 378 2
350 377 378 1
351 378 379 1
352 379 380 1
353 379 384 1
354 379 385 1
355 380 381 1
356 380 382 1
357 380 383 1
358 384 386 1
359 384 387 1
360 384 388 1
