@<TRIPOS>MOLECULE
Molecule Name
50 48
SMALL
NO_CHARGES

@<TRIPOS>ATOM
1 C1	0.0000	0.0000	0.0000 C
2 O2	-1.2245	0.0000	0.0000 O
3 O3	0.6872	1.2062	0.0000 O
4 H4	1.6592	1.0935	0.0238 H
5 N5	0.4452	-2.2653	0.9577 N
6 C6	-0.3140	-2.8085	3.1867 C
7 H7	-0.9656	-3.6059	2.8526 H
8 H8	-0.2634	-2.6373	4.2544 H
9 C9	0.4016	-2.0356	2.3397 C
10 C10	1.2664	-0.9022	2.8506 C
11 H11	0.9403	0.0764	2.4768 H
12 H12	1.2219	-0.8631	3.9408 H
13 H13	2.3169	-1.0390	2.5601 H
14 C14	0.5091	-3.4918	-1.0438 C
15 C15	-0.1554	-3.4560	0.3399 C
16 C16	0.8630	-1.2735	-0.0372 C
17 C17	0.6524	-1.9982	-1.4070 C
18 H18	1.4932	-3.9689	-0.9726 H
19 H19	-0.0822	-4.0386	-1.7840 H
20 H20	0.0759	-4.3383	0.9458 H
21 H21	-1.2506	-3.3699	0.2650 H
22 H22	1.9214	-1.0044	0.1040 H
23 H23	-0.2748	-1.6364	-1.8629 H
24 H24	1.4746	-1.7997	-2.1001 H
25 O25	3.8343	1.6832	0.4708 O
26 H26	3.2419	2.9603	1.9364 H
27 C27	3.9282	2.7476	1.0922 C
28 C28	4.9359	3.8412	0.8001 C
29 C29	5.9035	3.4535	-0.3254 C
30 H30	6.5189	2.5970	-0.0281 H
31 H31	6.5695	4.2892	-0.5654 H
32 H32	5.3609	3.1669	-1.2311 H
33 C33	5.6642	4.2385	2.1070 C
34 H34	4.3382	4.7144	0.4816 H
35 H35	4.9551	4.4993	2.9020 H
36 H36	6.3096	5.1055	1.9324 H
37 H37	6.2921	3.4149	2.4664 H
38 O38	3.5194	0.7168	-1.5590 O
39 H39	3.5957	1.0961	-3.5542 H
40 C40	3.5503	1.4934	-2.5203 C
41 C41	3.5312	3.0055	-2.4199 C
42 C42	3.3896	3.4893	-0.9709 C
43 H43	2.4240	3.1826	-0.5536 H
44 H44	3.4547	4.5815	-0.9217 H
45 H45	4.1705	3.0630	-0.3344 H
46 C46	2.4337	3.5738	-3.3519 C
47 H47	4.5050	3.3393	-2.8215 H
48 H48	2.5450	3.2060	-4.3791 H
49 H49	2.4869	4.6670	-3.3771 H
50 H50	1.4368	3.2908	-2.9942 H
@<TRIPOS>BOND
1 1 2 2
2 1 3 1
3 1 16 1
4 3 4 1
5 5 9 1
6 5 15 1
7 5 16 1
8 6 7 1
9 6 8 1
10 6 9 2
11 9 10 1
12 10 11 1
13 10 12 1
14 10 13 1
15 14 15 1
16 14 17 1
17 14 18 1
18 14 19 1
19 15 20 1
20 15 21 1
21 16 17 1
22 16 22 1
23 17 23 1
24 17 24 1
25 25 27 2
26 26 27 1
27 27 28 1
28 28 29 1
29 28 33 1
30 28 34 1
31 29 30 1
32 29 31 1
33 29 32 1
34 33 35 1
35 33 36 1
36 33 37 1
37 38 40 2
38 39 40 1
39 40 41 1
40 41 42 1
41 41 46 1
42 41 47 1
43 42 43 1
44 42 44 1
45 42 45 1
46 46 48 1
47 46 49 1
48 46 50 1
