@<TRIPOS>MOLECULE
Molecule Name
674 624
SMALL
NO_CHARGES

@<TRIPOS>ATOM
1 H1	0.0000	0.0000	0.0000 H
2 O2	-3.1354	-0.0000	0.0000 O
3 C3	-2.0133	0.7652	0.0000 C
4 O4	-1.9772	1.8866	0.4855 O
5 C5	-0.9446	-2.5424	0.8089 C
6 H6	-0.8146	-1.6660	1.4330 H
7 H7	-0.8985	-3.4971	1.3253 H
8 C8	-1.1553	-2.4728	-0.5157 C
9 C9	-1.3473	-3.7671	-1.2787 C
10 H10	-2.3248	-3.7784	-1.7721 H
11 H11	-1.3029	-4.6460	-0.6260 H
12 H12	-0.5664	-3.8849	-2.0369 H
13 N13	-1.2348	-1.2728	-1.2324 N
14 C14	-1.3282	0.2834	-3.0319 C
15 C15	-0.4285	0.8604	-1.9531 C
16 C16	-0.8345	0.0762	-0.7049 C
17 H17	-0.5486	1.9432	-1.8533 H
18 H18	0.6203	0.6528	-2.1984 H
19 C19	-1.3478	-1.2032	-2.7035 C
20 H20	-0.9590	0.4818	-4.0420 H
21 H21	-2.3376	0.7037	-2.9491 H
22 H22	-0.4877	-1.7009	-3.1661 H
23 H23	-2.2702	-1.6713	-3.0613 H
24 H24	-2.8866	-0.8521	-0.4348 H
25 O25	-5.4219	-1.2896	-1.6147 O
26 H26	-5.9243	0.0713	-0.2083 H
27 C27	-6.2527	-0.6601	-0.9677 C
28 C28	-7.7534	-0.8522	-1.0733 C
29 C29	-8.1211	-1.8271	-2.1853 C
30 H30	-7.7809	-1.4653	-3.1620 H
31 H31	-9.2052	-1.9726	-2.2340 H
32 H32	-7.6578	-2.8052	-2.0158 H
33 C33	-8.4151	0.5033	-1.2921 C
34 H34	-8.0878	-1.2625	-0.1134 H
35 H35	-8.1719	1.1935	-0.4767 H
36 H36	-9.5046	0.4044	-1.3364 H
37 H37	-8.0743	0.9656	-2.2253 H
38 O38	-5.1285	-2.5218	-0.3192 O
39 H39	-5.9631	-1.3417	1.0926 H
40 C40	-6.0447	-2.2311	0.4432 C
41 C41	-7.3039	-3.0552	0.6312 C
42 C42	-7.3656	-4.2232	-0.3456 C
43 H43	-7.3700	-3.8750	-1.3845 H
44 H44	-8.2683	-4.8211	-0.1823 H
45 H45	-6.4990	-4.8817	-0.2217 H
46 C46	-8.5199	-2.1489	0.4791 C
47 H47	-7.2755	-3.4465	1.6548 H
48 H48	-8.4872	-1.3258	1.2014 H
49 H49	-9.4472	-2.7068	0.6455 H
50 H50	-8.5615	-1.7049	-0.5219 H
51 O51	-5.3252	-2.0107	-1.1623 O
52 H52	-6.0700	-0.1848	-1.6027 H
53 C53	-6.2566	-1.2182	-1.2610 C
54 C54	-7.6915	-1.5223	-0.8757 C
55 C55	-7.8726	-2.9824	-0.4790 C
56 H56	-7.6199	-3.6551	-1.3061 H
57 H57	-8.9077	-3.1807	-0.1820 H
58 H58	-7.2250	-3.2404	0.3660 H
59 C59	-8.6081	-1.1520	-2.0358 C
60 H60	-7.9292	-0.8861	-0.0151 H
61 H61	-8.4965	-0.0948	-2.3005 H
62 H62	-9.6576	-1.3256	-1.7763 H
63 H63	-8.3741	-1.7403	-2.9302 H
64 O64	-4.2065	-3.1774	0.7014 O
65 H65	-5.0187	-2.7084	2.4910 H
66 C66	-5.0961	-2.6873	1.3896 C
67 C67	-6.3785	-2.0900	0.8432 C
68 C68	-6.3747	-2.0412	-0.6799 C
69 H69	-5.5535	-1.4218	-1.0575 H
70 H70	-7.3154	-1.6289	-1.0594 H
71 H71	-6.2526	-3.0446	-1.1021 H
72 C72	-6.5721	-0.6989	1.4354 C
73 H73	-7.1967	-2.7381	1.1780 H
74 H74	-6.6026	-0.7405	2.5297 H
75 H75	-7.5100	-0.2530	1.0887 H
76 H76	-5.7503	-0.0303	1.1557 H
77 O77	-6.9514	0.6496	2.7832 O
78 H78	-5.3623	1.1391	1.6355 H
79 C79	-5.7641	0.9237	2.6413 C
80 C80	-4.7407	0.9279	3.7605 C
81 C81	-5.3881	0.6863	5.1187 C
82 H82	-6.1183	1.4674	5.3575 H
83 H83	-4.6344	0.6695	5.9128 H
84 H84	-5.9148	-0.2741	5.1346 H
85 C85	-3.9863	2.2521	3.7410 C
86 H86	-4.0383	0.1131	3.5495 H
87 H87	-3.4984	2.4102	2.7729 H
88 H88	-3.2128	2.2735	4.5157 H
89 H89	-4.6632	3.0973	3.9086 H
90 O90	-0.1509	-0.3100	3.7897 O
91 H91	-2.1429	-0.0831	3.5392 H
92 C92	-1.1859	0.3410	3.8907 C
93 C93	-1.2626	1.7621	4.4149 C
94 C94	0.0851	2.2449	4.9372 C
95 H95	0.4380	1.6224	5.7669 H
96 H96	0.0187	3.2791	5.2908 H
97 H97	0.8452	2.2070	4.1494 H
98 C98	-2.3294	1.8355	5.5011 C
99 H99	-1.5664	2.3938	3.5721 H
100 H100	-3.3032	1.5146	5.1153 H
101 H101	-2.4360	2.8585	5.8765 H
102 H102	-2.0809	1.1841	6.3465 H
103 O103	-5.0399	-1.3010	-3.2237 O
104 H104	-6.4259	0.0004	-2.5397 H
105 C105	-6.1055	-0.7020	-3.3291 C
106 C106	-7.0960	-0.8979	-4.4607 C
107 C107	-6.5490	-1.8299	-5.5352 C
108 H108	-5.6340	-1.4279	-5.9843 H
109 H109	-7.2838	-1.9792	-6.3332 H
110 H110	-6.3062	-2.8115	-5.1136 H
111 C111	-7.4577	0.4616	-5.0472 C
112 H112	-7.9936	-1.3477	-4.0207 H
113 H113	-7.8769	1.1202	-4.2786 H
114 H114	-8.2008	0.3587	-5.8447 H
115 H115	-6.5759	0.9623	-5.4625 H
116 O116	-6.5353	0.7570	1.8777 O
117 H117	-5.6204	2.0533	0.6268 H
118 C118	-5.7777	1.6971	1.6602 C
119 C119	-4.9509	2.4007	2.7191 C
120 C120	-5.2760	1.8935	4.1188 C
121 H121	-6.3273	2.0689	4.3728 H
122 H122	-4.6555	2.3943	4.8692 H
123 H123	-5.0930	0.8162	4.1958 H
124 C124	-5.1811	3.9037	2.6138 C
125 H125	-3.8999	2.1835	2.4955 H
126 H126	-4.9199	4.2705	1.6150 H
127 H127	-4.5693	4.4455	3.3425 H
128 H128	-6.2320	4.1580	2.7917 H
129 O129	-4.7374	2.8004	-3.5816 O
130 H130	-4.1557	2.4156	-1.6853 H
131 C131	-4.6495	3.1019	-2.3956 C
132 C132	-5.2423	4.3539	-1.7783 C
133 C133	-5.8454	5.2729	-2.8338 C
134 H134	-5.0888	5.6050	-3.5533 H
135 H135	-6.2890	6.1605	-2.3708 H
136 H136	-6.6322	4.7580	-3.3959 H
137 C137	-4.1634	5.0734	-0.9774 C
138 H138	-6.0347	4.0251	-1.0959 H
139 H139	-3.7512	4.4196	-0.2009 H
140 H140	-4.5686	5.9648	-0.4874 H
141 H141	-3.3319	5.3834	-1.6202 H
142 O142	-4.9198	-1.0602	-2.3943 O
143 H143	-6.5988	-1.8799	-1.6253 H
144 C144	-6.0645	-1.4866	-2.5081 C
145 C145	-6.8197	-1.5891	-3.8193 C
146 C146	-6.0392	-0.9670	-4.9708 C
147 H147	-5.8535	0.0988	-4.7974 H
148 H148	-6.5868	-1.0691	-5.9135 H
149 H149	-5.0665	-1.4562	-5.0921 H
150 C150	-8.1838	-0.9277	-3.6616 C
151 H151	-6.9614	-2.6575	-4.0196 H
152 H152	-8.7541	-1.3955	-2.8515 H
153 H153	-8.7706	-1.0165	-4.5817 H
154 H154	-8.0837	0.1364	-3.4199 H
155 O155	-5.6437	4.4995	-0.8638 O
156 H156	-4.4351	2.9912	-0.2749 H
157 C157	-5.4568	3.3411	-0.5056 C
158 C158	-6.5389	2.2827	-0.4117 C
159 C159	-7.9218	2.8633	-0.6818 C
160 H160	-8.1778	3.6402	0.0471 H
161 H161	-8.6888	2.0834	-0.6329 H
162 H162	-7.9667	3.3172	-1.6778 H
163 C163	-6.4784	1.6288	0.9637 C
164 H164	-6.3119	1.5301	-1.1757 H
165 H165	-5.4919	1.1876	1.1440 H
166 H166	-7.2249	0.8327	1.0519 H
167 H167	-6.6608	2.3598	1.7594 H
168 O168	-2.6608	3.4022	-3.7640 O
169 H169	-3.7940	4.8713	-4.5641 H
170 C170	-3.0148	4.5745	-3.8401 C
171 C171	-2.4056	5.7122	-3.0436 C
172 C172	-1.3888	5.2085	-2.0264 C
173 H173	-1.8520	4.5299	-1.3015 H
174 H174	-0.9418	6.0427	-1.4756 H
175 H175	-0.5799	4.6605	-2.5217 H
176 C176	-3.5208	6.4960	-2.3616 C
177 H177	-1.8979	6.3653	-3.7630 H
178 H178	-4.2351	6.8808	-3.0977 H
179 H179	-3.1168	7.3487	-1.8061 H
180 H180	-4.0796	5.8644	-1.6619 H
181 O181	-4.8694	-3.6620	-2.9335 O
182 H182	-5.9059	-2.0334	-3.5299 H
183 C183	-5.9133	-3.1026	-3.2538 C
184 C184	-7.2813	-3.7569	-3.2394 C
185 C185	-7.1934	-5.2426	-2.9121 C
186 H186	-6.5954	-5.7806	-3.6561 H
187 H187	-8.1899	-5.6954	-2.8831 H
188 H188	-6.7240	-5.3998	-1.9349 H
189 C189	-7.9555	-3.5319	-4.5877 C
190 H190	-7.8644	-3.2531	-2.4597 H
191 H191	-8.0428	-2.4622	-4.8078 H
192 H192	-8.9625	-3.9615	-4.5984 H
193 H193	-7.3794	-3.9877	-5.4008 H
194 O194	-6.0893	3.7494	-1.6366 O
195 H195	-4.0896	3.4871	-1.7580 H
196 C196	-4.9566	3.8441	-1.1748 C
197 C197	-4.6319	4.3676	0.2111 C
198 C198	-5.8725	4.8977	0.9196 C
199 H199	-6.3231	5.7296	0.3669 H
200 H200	-5.6260	5.2507	1.9264 H
201 H201	-6.6323	4.1143	1.0146 H
202 C202	-3.5622	5.4475	0.0978 C
203 H203	-4.2282	3.5229	0.7814 H
204 H204	-2.6610	5.0560	-0.3867 H
205 H205	-3.2778	5.8220	1.0866 H
206 H206	-3.9148	6.2944	-0.5015 H
207 O207	-7.0828	1.8885	3.1291 O
208 H208	-6.4214	2.6663	1.3855 H
209 C209	-6.2025	2.3785	2.4290 C
210 C210	-4.7624	2.5708	2.8638 C
211 C211	-4.5627	2.2111	4.3311 C
212 H212	-5.1753	2.8428	4.9840 H
213 H213	-3.5146	2.3333	4.6236 H
214 H214	-4.8452	1.1697	4.5195 H
215 C215	-4.3480	4.0122	2.5917 C
216 H216	-4.1535	1.9010	2.2456 H
217 H217	-4.4660	4.2595	1.5310 H
218 H218	-3.2995	4.1755	2.8614 H
219 H219	-4.9629	4.7167	3.1629 H
220 O220	-5.3300	-3.5768	-0.7420 O
221 H221	-5.1037	-2.1526	0.6732 H
222 C222	-5.4175	-3.1795	0.4155 C
223 C223	-5.8736	-4.0289	1.5862 C
224 C224	-6.3481	-5.4048	1.1347 C
225 H225	-7.2006	-5.3284	0.4506 H
226 H226	-6.6524	-6.0135	1.9925 H
227 H227	-5.5498	-5.9398	0.6089 H
228 C228	-6.9735	-3.2899	2.3393 C
229 H229	-5.0067	-4.1487	2.2463 H
230 H230	-6.6208	-2.3127	2.6871 H
231 H231	-7.3007	-3.8611	3.2142 H
232 H232	-7.8449	-3.1146	1.6984 H
233 O233	-2.1951	-1.6139	-5.8572 O
234 H234	-3.7507	-2.5055	-6.7885 H
235 C235	-2.9199	-1.7795	-6.8331 C
236 C236	-2.7286	-1.0979	-8.1744 C
237 C237	-1.6059	-0.0685	-8.1298 C
238 H238	-1.8186	0.7229	-7.4025 H
239 H239	-1.4652	0.3981	-9.1103 H
240 H240	-0.6586	-0.5366	-7.8410 H
241 C241	-4.0441	-0.4559	-8.5990 C
242 H242	-2.4655	-1.8828	-8.8930 H
243 H243	-4.8432	-1.2031	-8.6575 H
244 H244	-3.9502	0.0149	-9.5831 H
245 H245	-4.3626	0.3089	-7.8818 H
246 O246	-3.5123	3.1096	5.2993 O
247 H247	-5.0472	2.4261	4.1772 H
248 C248	-4.1912	3.1165	4.2774 C
249 C249	-3.9085	3.9763	3.0606 C
250 C250	-2.7556	4.9419	3.3068 C
251 H251	-2.9786	5.6279	4.1316 H
252 H252	-2.5491	5.5392	2.4126 H
253 H253	-1.8406	4.3988	3.5672 H
254 C254	-5.1781	4.7261	2.6745 C
255 H255	-3.6353	3.2935	2.2477 H
256 H256	-5.9978	4.0284	2.4707 H
257 H257	-5.0180	5.3300	1.7753 H
258 H258	-5.5070	5.3915	3.4806 H
259 O259	-0.1693	3.1160	-4.5546 O
260 H260	-1.9261	4.1063	-4.6775 H
261 C261	-0.8323	4.1480	-4.5315 C
262 C262	-0.2530	5.5415	-4.3814 C
263 C263	1.2479	5.5041	-4.1204 C
264 H264	1.4788	4.9662	-3.1942 H
265 H265	1.6548	6.5172	-4.0371 H
266 H266	1.7734	4.9967	-4.9368 H
267 C267	-0.9862	6.2678	-3.2597 C
268 H268	-0.4384	6.0643	-5.3269 H
269 H269	-2.0615	6.3179	-3.4635 H
270 H270	-0.6159	7.2922	-3.1491 H
271 H271	-0.8580	5.7513	-2.3019 H
272 O272	2.4941	0.4996	1.1667 O
273 H273	1.2335	0.6258	2.7407 H
274 C274	2.2413	0.8070	2.3272 C
275 C275	3.2086	1.5044	3.2643 C
276 C276	4.5900	1.6566	2.6393 C
277 H277	5.0302	0.6818	2.4015 H
278 H278	5.2699	2.1815	3.3184 H
279 H279	4.5357	2.2304	1.7077 H
280 C280	3.2821	0.7270	4.5733 C
281 H281	2.7944	2.4998	3.4625 H
282 H282	2.2920	0.6433	5.0347 H
283 H283	3.9459	1.2250	5.2876 H
284 H284	3.6548	-0.2905	4.4105 H
285 O285	-5.0041	-3.3902	-2.4856 O
286 H286	-6.9355	-2.8325	-2.2832 H
287 C287	-6.1115	-3.1403	-2.9508 C
288 C288	-6.4851	-3.2871	-4.4133 C
289 C289	-5.2789	-3.6506	-5.2707 C
290 H290	-4.5053	-2.8764	-5.2200 H
291 H291	-5.5688	-3.7752	-6.3192 H
292 H292	-4.8285	-4.5901	-4.9323 H
293 C293	-7.1298	-1.9928	-4.8952 C
294 H294	-7.2219	-4.0968	-4.4714 H
295 H295	-8.0132	-1.7486	-4.2949 H
296 H296	-7.4454	-2.0781	-5.9402 H
297 H297	-6.4353	-1.1491	-4.8144 H
298 O298	2.6168	-0.8937	0.4281 O
299 H299	2.1014	-2.7969	-0.0129 H
300 C300	2.8454	-2.0989	0.4098 C
301 C301	4.0802	-2.7510	1.0014 C
302 C302	5.0804	-1.7162	1.5024 C
303 H303	5.4259	-1.0686	0.6890 H
304 H304	5.9552	-2.2023	1.9467 H
305 H305	4.6281	-1.0743	2.2662 H
306 C306	4.7120	-3.6621	-0.0445 C
307 H307	3.7414	-3.3597	1.8479 H
308 H308	3.9996	-4.4227	-0.3824 H
309 H309	5.5876	-4.1779	0.3632 H
310 H310	5.0283	-3.0944	-0.9268 H
311 O311	-5.0342	-4.1536	-1.1816 O
312 H312	-6.1527	-4.1010	0.5002 H
313 C313	-6.0244	-3.7942	-0.5528 C
314 C314	-7.1697	-2.9886	-1.1353 C
315 C315	-6.8831	-2.5531	-2.5672 C
316 H316	-5.9924	-1.9172	-2.6204 H
317 H317	-7.7277	-1.9926	-2.9811 H
318 H318	-6.7077	-3.4216	-3.2114 H
319 C319	-7.4381	-1.7847	-0.2399 C
320 H320	-8.0502	-3.6415	-1.1298 H
321 H321	-7.6715	-2.1018	0.7825 H
322 H322	-8.2853	-1.2002	-0.6132 H
323 H323	-6.5638	-1.1262	-0.1871 H
324 O324	-2.7162	6.4674	4.0145 O
325 H325	-3.8873	4.8349	4.2283 H
326 C326	-3.2194	5.4343	3.5849 C
327 C327	-2.9420	4.8453	2.2151 C
328 C328	-2.0667	5.7644	1.3718 C
329 H329	-2.5497	6.7337	1.2054 H
330 H330	-1.8568	5.3156	0.3954 H
331 H331	-1.1085	5.9539	1.8678 H
332 C332	-4.2670	4.5594	1.5181 C
333 H333	-2.4129	3.8994	2.3791 H
334 H334	-4.8827	3.8761	2.1134 H
335 H335	-4.1026	4.0985	0.5386 H
336 H336	-4.8454	5.4786	1.3720 H
337 O337	-6.2569	0.3175	5.6915 O
338 H338	-6.9697	1.9677	4.7690 H
339 C339	-6.3491	1.0558	4.7161 C
340 C340	-5.7154	0.7829	3.3655 C
341 C341	-4.8272	-0.4549	3.3982 C
342 H342	-4.0053	-0.3377	4.1133 H
343 H343	-4.3955	-0.6516	2.4114 H
344 H344	-5.4009	-1.3391	3.6966 H
345 C345	-4.9269	2.0116	2.9277 C
346 H346	-6.5367	0.6148	2.6592 H
347 H347	-5.5739	2.8943	2.8779 H
348 H348	-4.4854	1.8609	1.9372 H
349 H349	-4.1189	2.2370	3.6327 H
350 O350	0.8555	5.4290	4.2143 O
351 H351	-0.1328	3.9891	5.2304 H
352 C352	0.0175	4.5355	4.2826 C
353 C353	-0.8189	4.0472	3.1156 C
354 C354	-0.5977	4.8945	1.8685 C
355 H355	-0.8782	5.9395	2.0409 H
356 H356	-1.1905	4.5160	1.0293 H
357 H357	0.4560	4.8806	1.5691 H
358 C358	-2.2878	4.0440	3.5222 C
359 H359	-0.5029	3.0180	2.9091 H
360 H360	-2.4487	3.4116	4.4023 H
361 H361	-2.9174	3.6611	2.7124 H
362 H362	-2.6317	5.0529	3.7764 H
363 O363	-3.9805	1.9263	6.6923 O
364 H364	-5.3635	3.0099	5.6947 H
365 C365	-4.4564	2.3813	5.6571 C
366 C366	-3.9285	2.0911	4.2653 C
367 C367	-2.6428	1.2742	4.3079 C
368 H368	-1.8480	1.8080	4.8407 H
369 H369	-2.2869	1.0537	3.2962 H
370 H370	-2.8031	0.3209	4.8233 H
371 C371	-3.7165	3.4082	3.5282 C
372 H372	-4.7026	1.5124	3.7480 H
373 H373	-4.6489	3.9809	3.4744 H
374 H374	-3.3693	3.2326	2.5047 H
375 H375	-2.9763	4.0345	4.0388 H
376 O376	-1.4103	7.6048	3.5321 O
377 H377	-2.0933	6.4032	5.0059 H
378 C378	-1.7798	6.5131	3.9528 C
379 C379	-1.7813	5.2321	3.1411 C
380 C380	-1.3993	5.4840	1.6875 C
381 H381	-2.1065	6.1651	1.2012 H
382 H382	-1.3828	4.5474	1.1205 H
383 H383	-0.4042	5.9367	1.6184 H
384 C384	-3.1554	4.5802	3.2414 C
385 H385	-1.0368	4.5687	3.5964 H
386 H386	-3.4155	4.3745	4.2856 H
387 H387	-3.1796	3.6318	2.6948 H
388 H388	-3.9351	5.2322	2.8318 H
389 O389	-7.3563	-0.3078	0.2229 O
390 H390	-5.7233	0.7566	0.7544 H
391 C391	-6.6880	0.7210	0.2182 C
392 C392	-7.1165	2.0243	-0.4282 C
393 C393	-8.4223	1.8701	-1.1986 C
394 H394	-8.3251	1.1357	-2.0059 H
395 H395	-8.7299	2.8237	-1.6399 H
396 H396	-9.2272	1.5300	-0.5380 H
397 C397	-5.9989	2.5203	-1.3382 C
398 H398	-7.2636	2.7462	0.3835 H
399 H399	-5.0685	2.6572	-0.7761 H
400 H400	-6.2620	3.4806	-1.7936 H
401 H401	-5.7938	1.8042	-2.1418 H
402 O402	2.1167	-3.9377	-1.2510 O
403 H403	2.2500	-2.7488	0.3772 H
404 C404	2.7068	-3.5299	-0.2557 C
405 C405	4.0954	-3.9719	0.1645 C
406 C406	4.6232	-5.0939	-0.7214 C
407 H407	3.9815	-5.9803	-0.6677 H
408 H408	5.6345	-5.3860	-0.4200 H
409 H409	4.6627	-4.7778	-1.7695 H
410 C410	4.0610	-4.3988	1.6272 C
411 H411	4.7495	-3.0982	0.0623 H
412 H412	3.7079	-3.5812	2.2652 H
413 H413	5.0581	-4.6901	1.9735 H
414 H414	3.3842	-5.2474	1.7775 H
415 O415	0.4922	4.3259	-2.8834 O
416 H416	1.2438	5.4599	-1.3896 H
417 C417	0.3780	5.1893	-2.0193 C
418 C418	-0.9170	5.9010	-1.6779 C
419 C419	-2.0407	5.5183	-2.6333 C
420 H420	-1.7960	5.7891	-3.6664 H
421 H421	-2.9737	6.0222	-2.3603 H
422 H422	-2.2224	4.4382	-2.6094 H
423 C423	-0.6765	7.4061	-1.6900 C
424 H424	-1.1900	5.5907	-0.6626 H
425 H425	0.1125	7.6818	-0.9816 H
426 H426	-1.5850	7.9499	-1.4111 H
427 H427	-0.3615	7.7500	-2.6815 H
428 O428	2.7917	-0.0519	0.1980 O
429 H429	3.0816	-2.0514	0.1806 H
430 C430	3.5024	-1.0424	0.3360 C
431 C431	4.9505	-1.0083	0.7854 C
432 C432	5.4687	0.4191	0.9133 C
433 H433	5.4246	0.9472	-0.0457 H
434 H434	6.5073	0.4275	1.2601 H
435 H435	4.8695	0.9888	1.6319 H
436 C436	5.7957	-1.8122	-0.1957 C
437 H437	4.9876	-1.4914	1.7687 H
438 H438	5.4384	-2.8455	-0.2645 H
439 H439	6.8437	-1.8382	0.1204 H
440 H440	5.7517	-1.3824	-1.2027 H
441 O441	-4.6381	-3.9709	-0.2098 O
442 H442	-6.0153	-2.5096	0.0142 H
443 C443	-5.7422	-3.5715	0.1458 C
444 C444	-6.7851	-4.4256	0.8407 C
445 C445	-6.3560	-5.8855	0.9231 C
446 H446	-6.2108	-6.3158	-0.0741 H
447 H447	-7.1083	-6.4844	1.4469 H
448 H448	-5.4098	-5.9840	1.4662 H
449 C449	-8.1135	-4.2857	0.1064 C
450 H450	-6.8943	-4.0274	1.8561 H
451 H451	-8.4337	-3.2385	0.0732 H
452 H452	-8.8991	-4.8627	0.6052 H
453 H453	-8.0342	-4.6371	-0.9284 H
454 O454	-7.8946	2.5998	2.9417 O
455 H455	-6.9473	2.0180	4.6289 H
456 C456	-6.8764	2.3410	3.5753 C
457 C457	-5.4657	2.4960	3.0405 C
458 C458	-5.4597	2.8807	1.5660 C
459 H459	-5.9465	2.1151	0.9517 H
460 H460	-4.4357	3.0109	1.2008 H
461 H461	-5.9960	3.8224	1.4063 H
462 C462	-4.7000	1.1984	3.2712 C
463 H463	-4.9940	3.2974	3.6208 H
464 H464	-4.6818	0.9389	4.3354 H
465 H465	-3.6641	1.2889	2.9285 H
466 H466	-5.1659	0.3622	2.7380 H
467 O467	-4.6414	-4.2480	-3.2680 O
468 H468	-4.2855	-5.7822	-2.0023 H
469 C469	-4.9654	-5.3004	-2.7270 C
470 C470	-6.2393	-6.0669	-3.0263 C
471 C471	-7.1465	-5.3031	-3.9832 C
472 H472	-7.4514	-4.3393	-3.5605 H
473 H473	-8.0506	-5.8788	-4.2071 H
474 H474	-6.6334	-5.1010	-4.9297 H
475 C475	-6.9569	-6.3714	-1.7165 C
476 H476	-5.9375	-7.0102	-3.4963 H
477 H477	-6.3123	-6.9449	-1.0414 H
478 H478	-7.8646	-6.9573	-1.8945 H
479 H479	-7.2400	-5.4501	-1.1952 H
480 O480	-1.6176	6.3839	4.5395 O
481 H481	-1.6332	6.8057	2.5636 H
482 C482	-1.5227	6.0513	3.3624 C
483 C483	-1.3260	4.6261	2.8827 C
484 C484	-1.1183	3.6625	4.0448 C
485 H485	-0.2272	3.9243	4.6261 H
486 H486	-1.0006	2.6355	3.6838 H
487 H487	-1.9753	3.6832	4.7268 H
488 C488	-0.1467	4.5834	1.9180 C
489 H489	-2.2386	4.3452	2.3442 H
490 H490	-0.3111	5.2560	1.0691 H
491 H491	0.0001	3.5725	1.5237 H
492 H492	0.7805	4.8976	2.4102 H
493 O493	-3.0086	-0.1264	3.9678 O
494 H494	-2.5343	1.6902	3.2213 H
495 C495	-3.2192	1.0744	3.8305 C
496 C496	-4.3447	1.8348	4.5051 C
497 C497	-5.2766	0.9030	5.2702 C
498 H498	-5.7468	0.1723	4.6028 H
499 H499	-6.0699	1.4686	5.7699 H
500 H500	-4.7276	0.3450	6.0365 H
501 C501	-5.1083	2.6311	3.4536 C
502 H502	-3.8770	2.5310	5.2110 H
503 H503	-4.4413	3.3205	2.9242 H
504 H504	-5.9073	3.2218	3.9137 H
505 H505	-5.5583	1.9703	2.7042 H
506 O506	2.3470	4.8669	2.6479 O
507 H507	1.6865	2.9575	2.6653 H
508 C508	1.4586	4.0293	2.5284 C
509 C509	0.0296	4.3398	2.1264 C
510 C510	-0.2145	5.8404	2.0221 C
511 H511	-0.0420	6.3405	2.9816 H
512 H512	-1.2431	6.0476	1.7093 H
513 H513	0.4586	6.2950	1.2871 H
514 C514	-0.9210	3.6987	3.1306 C
515 H515	-0.1283	3.8828	1.1426 H
516 H516	-0.7626	2.6159	3.1830 H
517 H517	-1.9645	3.8734	2.8486 H
518 H518	-0.7657	4.1017	4.1377 H
519 O519	-1.0803	5.7687	5.1080 O
520 H520	-0.2379	3.9959	5.5873 H
521 C521	-0.8931	4.5724	4.9107 C
522 C522	-1.4499	3.7956	3.7332 C
523 C523	-2.3918	4.6463	2.8898 C
524 H524	-3.2521	4.9893	3.4753 H
525 H525	-2.7672	4.0791	2.0318 H
526 H526	-1.8778	5.5347	2.5069 H
527 C527	-2.1539	2.5459	4.2487 C
528 H528	-0.5929	3.4955	3.1190 H
529 H529	-1.4669	1.9221	4.8311 H
530 H530	-2.5368	1.9421	3.4195 H
531 H531	-2.9950	2.8047	4.9017 H
532 O532	-6.9564	0.1016	-3.5833 O
533 H533	-6.4470	1.9996	-3.1137 H
534 C534	-6.7008	0.9821	-2.7680 C
535 C535	-6.6331	0.7738	-1.2673 C
536 C536	-7.0592	-0.6351	-0.8728 C
537 H537	-8.0936	-0.8378	-1.1720 H
538 H538	-6.9833	-0.7769	0.2103 H
539 H539	-6.4229	-1.3848	-1.3555 H
540 C540	-7.5005	1.8213	-0.5792 C
541 H541	-5.5879	0.9263	-0.9739 H
542 H542	-7.1742	2.8335	-0.8424 H
543 H543	-7.4449	1.7217	0.5097 H
544 H544	-8.5502	1.7271	-0.8792 H
545 O545	-5.9351	3.2358	5.3696 O
546 H546	-6.2762	2.0409	3.7764 H
547 C547	-5.6259	2.7832	4.2719 C
548 C548	-4.3435	3.1143	3.5332 C
549 C549	-3.5393	4.1906	4.2522 C
550 H550	-4.1057	5.1250	4.3331 H
551 H551	-2.6064	4.4021	3.7193 H
552 H552	-3.2814	3.8718	5.2681 H
553 C553	-4.6843	3.5433	2.1109 C
554 H554	-3.7527	2.1915	3.4964 H
555 H555	-5.2380	2.7565	1.5870 H
556 H556	-3.7758	3.7551	1.5376 H
557 H557	-5.3101	4.4428	2.1067 H
558 O558	-4.8932	-1.7299	-4.0274 O
559 H559	-5.5216	-3.5443	-3.3984 H
560 C560	-5.6023	-2.7253	-4.1348 C
561 C561	-6.5728	-2.9734	-5.2735 C
562 C562	-6.6701	-1.7712	-6.2047 C
563 H563	-7.0292	-0.8827	-5.6735 H
564 H564	-7.3566	-1.9740	-7.0333 H
565 H565	-5.6909	-1.5276	-6.6311 H
566 C566	-7.9373	-3.3311	-4.6961 C
567 H567	-6.1868	-3.8312	-5.8364 H
568 H568	-7.8695	-4.2127	-4.0493 H
569 H569	-8.6540	-3.5526	-5.4937 H
570 H570	-8.3399	-2.5110	-4.0911 H
571 O571	-7.6723	-0.7851	-0.5748 O
572 H572	-8.1396	-1.4186	1.2860 H
573 C573	-7.6959	-0.6382	0.6430 C
574 C574	-7.2112	0.6006	1.3713 C
575 C575	-6.5570	1.5953	0.4200 C
576 H576	-5.6820	1.1586	-0.0743 H
577 H577	-6.2331	2.4931	0.9566 H
578 H578	-7.2578	1.9056	-0.3626 H
579 C579	-6.2474	0.1840	2.4761 C
580 H580	-8.0941	1.0668	1.8240 H
581 H581	-6.7291	-0.5092	3.1745 H
582 H582	-5.9060	1.0541	3.0465 H
583 H583	-5.3676	-0.3236	2.0651 H
584 O584	-3.9897	5.4689	4.9740 O
585 H585	-2.0889	4.9821	5.4561 H
586 C586	-2.9819	4.7827	4.8378 C
587 C587	-2.8212	3.6824	3.8065 C
588 C588	-4.1160	3.4298	3.0436 C
589 H589	-4.9210	3.1147	3.7168 H
590 H590	-3.9779	2.6494	2.2881 H
591 H591	-4.4507	4.3384	2.5314 H
592 C592	-2.3386	2.4147	4.5015 C
593 H593	-2.0515	4.0192	3.1023 H
594 H594	-1.3931	2.5917	5.0258 H
595 H595	-2.1771	1.6088	3.7781 H
596 H596	-3.0654	2.0679	5.2446 H
597 O597	2.3007	-1.8510	-3.3271 O
598 H598	3.0371	-3.6949	-3.7015 H
599 C599	2.9240	-2.6450	-4.0245 C
600 C600	3.6408	-2.2839	-5.3113 C
601 C601	3.3799	-0.8383	-5.7167 C
602 H602	2.3130	-0.6586	-5.8900 H
603 H603	3.9218	-0.5865	-6.6342 H
604 H604	3.7079	-0.1478	-4.9321 H
605 C605	3.2080	-3.2476	-6.4100 C
606 H606	4.7128	-2.4144	-5.1232 H
607 H607	3.4224	-4.2843	-6.1278 H
608 H608	3.7358	-3.0369	-7.3458 H
609 H609	2.1311	-3.1758	-6.5998 H
610 O610	-8.2783	2.0405	2.4281 O
611 H611	-6.9952	1.0119	3.6020 H
612 C612	-7.3042	1.3113	2.5850 C
613 C613	-6.4079	0.8176	1.4656 C
614 C614	-6.9409	1.2203	0.0960 C
615 H615	-7.9344	0.7958	-0.0863 H
616 H616	-6.2717	0.8766	-0.6996 H
617 H617	-7.0274	2.3094	0.0157 H
618 C618	-6.2633	-0.6958	1.5739 C
619 H619	-5.4269	1.2824	1.6181 H
620 H620	-5.8535	-0.9808	2.5492 H
621 H621	-5.5911	-1.0812	0.8003 H
622 H622	-7.2322	-1.1961	1.4668 H
623 O623	1.9957	-0.5548	1.8826 O
624 H624	3.9274	-0.4103	2.4571 H
625 C625	2.8735	-0.1266	2.6251 C
626 C626	2.6239	0.7396	3.8447 C
627 C627	1.1576	1.1367	3.9650 C
628 H628	0.8283	1.7160	3.0952 H
629 H629	0.9896	1.7422	4.8617 H
630 H630	0.5176	0.2503	4.0329 H
631 C631	3.5207	1.9700	3.7739 C
632 H632	2.9052	0.1420	4.7196 H
633 H633	4.5761	1.6820	3.7159 H
634 H634	3.3915	2.6001	4.6600 H
635 H635	3.2967	2.5743	2.8877 H
636 O636	-2.8567	5.9089	5.9895 O
637 H637	-1.6636	6.8327	4.6458 H
638 C638	-2.3237	5.9809	4.8868 C
639 C639	-2.5524	4.9997	3.7532 C
640 C640	-3.4198	3.8251	4.1893 C
641 H641	-2.9493	3.2617	5.0027 H
642 H642	-3.5944	3.1380	3.3548 H
643 H643	-4.3946	4.1722	4.5487 H
644 C644	-1.2036	4.5200	3.2298 C
645 H645	-3.0692	5.5499	2.9584 H
646 H646	-0.5929	5.3641	2.8908 H
647 H647	-1.3325	3.8363	2.3844 H
648 H648	-0.6376	3.9984	4.0097 H
649 O649	3.2615	-0.1133	-2.7175 O
650 H650	5.0644	-1.0238	-2.6668 H
651 C651	4.4199	-0.2395	-3.1013 C
652 C652	5.0962	0.6657	-4.1130 C
653 C653	4.1217	1.6748	-4.7083 C
654 H654	3.3004	1.1747	-5.2334 H
655 H655	4.6294	2.3350	-5.4191 H
656 H656	3.6803	2.3001	-3.9246 H
657 C657	5.7310	-0.1911	-5.2021 C
658 H658	5.8856	1.2048	-3.5766 H
659 H659	6.4519	-0.8965	-4.7743 H
660 H660	6.2603	0.4313	-5.9310 H
661 H661	4.9757	-0.7781	-5.7364 H
662 O662	-6.0421	0.6401	-3.1743 O
663 H663	-5.5394	-0.2223	-1.4176 H
664 C664	-6.3115	-0.0320	-2.1838 C
665 C665	-7.6459	-0.7099	-1.9391 C
666 C666	-8.6698	-0.3433	-3.0065 C
667 H667	-8.8630	0.7352	-3.0207 H
668 H668	-9.6199	-0.8578	-2.8289 H
669 H669	-8.3142	-0.6282	-4.0026 H
670 C670	-8.1465	-0.3371	-0.5486 C
671 H671	-7.4629	-1.7901	-1.9755 H
672 H672	-7.4209	-0.6272	0.2192 H
673 H673	-9.0929	-0.8403	-0.3253 H
674 H674	-8.3034	0.7438	-0.4595 H
@<TRIPOS>BOND
1 1 16 1
2 2 3 1
3 2 24 1
4 3 4 2
5 3 16 1
6 5 6 1
7 5 7 1
8 5 8 2
9 8 9 1
10 8 13 1
11 9 10 1
12 9 11 1
13 9 12 1
14 13 16 1
15 13 19 1
16 14 15 1
17 14 19 1
18 14 20 1
19 14 21 1
20 15 16 1
21 15 17 1
22 15 18 1
23 19 22 1
24 19 23 1
25 25 27 2
26 26 27 1
27 27 28 1
28 28 29 1
29 28 33 1
30 28 34 1
31 29 30 1
32 29 31 1
33 29 32 1
34 33 35 1
35 33 36 1
36 33 37 1
37 38 40 2
38 39 40 1
39 40 41 1
40 41 42 1
41 41 46 1
42 41 47 1
43 42 43 1
44 42 44 1
45 42 45 1
46 46 48 1
47 46 49 1
48 46 50 1
49 51 53 2
50 52 53 1
51 53 54 1
52 54 55 1
53 54 59 1
54 54 60 1
55 55 56 1
56 55 57 1
57 55 58 1
58 59 61 1
59 59 62 1
60 59 63 1
61 64 66 2
62 65 66 1
63 66 67 1
64 67 68 1
65 67 72 1
66 67 73 1
67 68 69 1
68 68 70 1
69 68 71 1
70 72 74 1
71 72 75 1
72 72 76 1
73 77 79 2
74 78 79 1
75 79 80 1
76 80 81 1
77 80 85 1
78 80 86 1
79 81 82 1
80 81 83 1
81 81 84 1
82 85 87 1
83 85 88 1
84 85 89 1
85 90 92 2
86 91 92 1
87 92 93 1
88 93 94 1
89 93 98 1
90 93 99 1
91 94 95 1
92 94 96 1
93 94 97 1
94 98 100 1
95 98 101 1
96 98 102 1
97 103 105 2
98 104 105 1
99 105 106 1
100 106 107 1
101 106 111 1
102 106 112 1
103 107 108 1
104 107 109 1
105 107 110 1
106 111 113 1
107 111 114 1
108 111 115 1
109 116 118 2
110 117 118 1
111 118 119 1
112 119 120 1
113 119 124 1
114 119 125 1
115 120 121 1
116 120 122 1
117 120 123 1
118 124 126 1
119 124 127 1
120 124 128 1
121 129 131 2
122 130 131 1
123 131 132 1
124 132 133 1
125 132 137 1
126 132 138 1
127 133 134 1
128 133 135 1
129 133 136 1
130 137 139 1
131 137 140 1
132 137 141 1
133 142 144 2
134 143 144 1
135 144 145 1
136 145 146 1
137 145 150 1
138 145 151 1
139 146 147 1
140 146 148 1
141 146 149 1
142 150 152 1
143 150 153 1
144 150 154 1
145 155 157 2
146 156 157 1
147 157 158 1
148 158 159 1
149 158 163 1
150 158 164 1
151 159 160 1
152 159 161 1
153 159 162 1
154 163 165 1
155 163 166 1
156 163 167 1
157 168 170 2
158 169 170 1
159 170 171 1
160 171 172 1
161 171 176 1
162 171 177 1
163 172 173 1
164 172 174 1
165 172 175 1
166 176 178 1
167 176 179 1
168 176 180 1
169 181 183 2
170 182 183 1
171 183 184 1
172 184 185 1
173 184 189 1
174 184 190 1
175 185 186 1
176 185 187 1
177 185 188 1
178 189 191 1
179 189 192 1
180 189 193 1
181 194 196 2
182 195 196 1
183 196 197 1
184 197 198 1
185 197 202 1
186 197 203 1
187 198 199 1
188 198 200 1
189 198 201 1
190 202 204 1
191 202 205 1
192 202 206 1
193 207 209 2
194 208 209 1
195 209 210 1
196 210 211 1
197 210 215 1
198 210 216 1
199 211 212 1
200 211 213 1
201 211 214 1
202 215 217 1
203 215 218 1
204 215 219 1
205 220 222 2
206 221 222 1
207 222 223 1
208 223 224 1
209 223 228 1
210 223 229 1
211 224 225 1
212 224 226 1
213 224 227 1
214 228 230 1
215 228 231 1
216 228 232 1
217 233 235 2
218 234 235 1
219 235 236 1
220 236 237 1
221 236 241 1
222 236 242 1
223 237 238 1
224 237 239 1
225 237 240 1
226 241 243 1
227 241 244 1
228 241 245 1
229 246 248 2
230 247 248 1
231 248 249 1
232 249 250 1
233 249 254 1
234 249 255 1
235 250 251 1
236 250 252 1
237 250 253 1
238 254 256 1
239 254 257 1
240 254 258 1
241 259 261 2
242 260 261 1
243 261 262 1
244 262 263 1
245 262 267 1
246 262 268 1
247 263 264 1
248 263 265 1
249 263 266 1
250 267 269 1
251 267 270 1
252 267 271 1
253 272 274 2
254 273 274 1
255 274 275 1
256 275 276 1
257 275 280 1
258 275 281 1
259 276 277 1
260 276 278 1
261 276 279 1
262 280 282 1
263 280 283 1
264 280 284 1
265 285 287 2
266 286 287 1
267 287 288 1
268 288 289 1
269 288 293 1
270 288 294 1
271 289 290 1
272 289 291 1
273 289 292 1
274 293 295 1
275 293 296 1
276 293 297 1
277 298 300 2
278 299 300 1
279 300 301 1
280 301 302 1
281 301 306 1
282 301 307 1
283 302 303 1
284 302 304 1
285 302 305 1
286 306 308 1
287 306 309 1
288 306 310 1
289 311 313 2
290 312 313 1
291 313 314 1
292 314 315 1
293 314 319 1
294 314 320 1
295 315 316 1
296 315 317 1
297 315 318 1
298 319 321 1
299 319 322 1
300 319 323 1
301 324 326 2
302 325 326 1
303 326 327 1
304 327 328 1
305 327 332 1
306 327 333 1
307 328 329 1
308 328 330 1
309 328 331 1
310 332 334 1
311 332 335 1
312 332 336 1
313 337 339 2
314 338 339 1
315 339 340 1
316 340 341 1
317 340 345 1
318 340 346 1
319 341 342 1
320 341 343 1
321 341 344 1
322 345 347 1
323 345 348 1
324 345 349 1
325 350 352 2
326 351 352 1
327 352 353 1
328 353 354 1
329 353 358 1
330 353 359 1
331 354 355 1
332 354 356 1
333 354 357 1
334 358 360 1
335 358 361 1
336 358 362 1
337 363 365 2
338 364 365 1
339 365 366 1
340 366 367 1
341 366 371 1
342 366 372 1
343 367 368 1
344 367 369 1
345 367 370 1
346 371 373 1
347 371 374 1
348 371 375 1
349 376 378 2
350 377 378 1
351 378 379 1
352 379 380 1
353 379 384 1
354 379 385 1
355 380 381 1
356 380 382 1
357 380 383 1
358 384 386 1
359 384 387 1
360 384 388 1
361 389 391 2
362 390 391 1
363 391 392 1
364 392 393 1
365 392 397 1
366 392 398 1
367 393 394 1
368 393 395 1
369 393 396 1
370 397 399 1
371 397 400 1
372 397 401 1
373 402 404 2
374 403 404 1
375 404 405 1
376 405 406 1
377 405 410 1
378 405 411 1
379 406 407 1
380 406 408 1
381 406 409 1
382 410 412 1
383 410 413 1
384 410 414 1
385 415 417 2
386 416 417 1
387 417 418 1
388 418 419 1
389 418 423 1
390 418 424 1
391 419 420 1
392 419 421 1
393 419 422 1
394 423 425 1
395 423 426 1
396 423 427 1
397 428 430 2
398 429 430 1
399 430 431 1
400 431 432 1
401 431 436 1
402 431 437 1
403 432 433 1
404 432 434 1
405 432 435 1
406 436 438 1
407 436 439 1
408 436 440 1
409 441 443 2
410 442 443 1
411 443 444 1
412 444 445 1
413 444 449 1
414 444 450 1
415 445 446 1
416 445 447 1
417 445 448 1
418 449 451 1
419 449 452 1
420 449 453 1
421 454 456 2
422 455 456 1
423 456 457 1
424 457 458 1
425 457 462 1
426 457 463 1
427 458 459 1
428 458 460 1
429 458 461 1
430 462 464 1
431 462 465 1
432 462 466 1
433 467 469 2
434 468 469 1
435 469 470 1
436 470 471 1
437 470 475 1
438 470 476 1
439 471 472 1
440 471 473 1
441 471 474 1
442 475 477 1
443 475 478 1
444 475 479 1
445 480 482 2
446 481 482 1
447 482 483 1
448 483 484 1
449 483 488 1
450 483 489 1
451 484 485 1
452 484 486 1
453 484 487 1
454 488 490 1
455 488 491 1
456 488 492 1
457 493 495 2
458 494 495 1
459 495 496 1
460 496 497 1
461 496 501 1
462 496 502 1
463 497 498 1
464 497 499 1
465 497 500 1
466 501 503 1
467 501 504 1
468 501 505 1
469 506 508 2
470 507 508 1
471 508 509 1
472 509 510 1
473 509 514 1
474 509 515 1
475 510 511 1
476 510 512 1
477 510 513 1
478 514 516 1
479 514 517 1
480 514 518 1
481 519 521 2
482 520 521 1
483 521 522 1
484 522 523 1
485 522 527 1
486 522 528 1
487 523 524 1
488 523 525 1
489 523 526 1
490 527 529 1
491 527 530 1
492 527 531 1
493 532 534 2
494 533 534 1
495 534 535 1
496 535 536 1
497 535 540 1
498 535 541 1
499 536 537 1
500 536 538 1
501 536 539 1
502 540 542 1
503 540 543 1
504 540 544 1
505 545 547 2
506 546 547 1
507 547 548 1
508 548 549 1
509 548 553 1
510 548 554 1
511 549 550 1
512 549 551 1
513 549 552 1
514 553 555 1
515 553 556 1
516 553 557 1
517 558 560 2
518 559 560 1
519 560 561 1
520 561 562 1
521 561 566 1
522 561 567 1
523 562 563 1
524 562 564 1
525 562 565 1
526 566 568 1
527 566 569 1
528 566 570 1
529 571 573 2
530 572 573 1
531 573 574 1
532 574 575 1
533 574 579 1
534 574 580 1
535 575 576 1
536 575 577 1
537 575 578 1
538 579 581 1
539 579 582 1
540 579 583 1
541 584 586 2
542 585 586 1
543 586 587 1
544 587 588 1
545 587 592 1
546 587 593 1
547 588 589 1
548 588 590 1
549 588 591 1
550 592 594 1
551 592 595 1
552 592 596 1
553 597 599 2
554 598 599 1
555 599 600 1
556 600 601 1
557 600 605 1
558 600 606 1
559 601 602 1
560 601 603 1
561 601 604 1
562 605 607 1
563 605 608 1
564 605 609 1
565 610 612 2
566 611 612 1
567 612 613 1
568 613 614 1
569 613 618 1
570 613 619 1
571 614 615 1
572 614 616 1
573 614 617 1
574 618 620 1
575 618 621 1
576 618 622 1
577 623 625 2
578 624 625 1
579 625 626 1
580 626 627 1
581 626 631 1
582 626 632 1
583 627 628 1
584 627 629 1
585 627 630 1
586 631 633 1
587 631 634 1
588 631 635 1
589 636 638 2
590 637 638 1
591 638 639 1
592 639 640 1
593 639 644 1
594 639 645 1
595 640 641 1
596 640 642 1
597 640 643 1
598 644 646 1
599 644 647 1
600 644 648 1
601 649 651 2
602 650 651 1
603 651 652 1
604 652 653 1
605 652 657 1
606 652 658 1
607 653 654 1
608 653 655 1
609 653 656 1
610 657 659 1
611 657 660 1
612 657 661 1
613 662 664 2
614 663 664 1
615 664 665 1
616 665 666 1
617 665 670 1
618 665 671 1
619 666 667 1
620 666 668 1
621 666 669 1
622 670 672 1
623 670 673 1
624 670 674 1
