# Title
# Created by GaussView 5.0.8
#

#
#

@<TRIPOS>MOLECULE
Molecule Name
673 625
SMALL
NO_CHARGES


@<TRIPOS>ATOM
1 C1     0.0000     0.0000     0.0000 C
2 C2    -1.3390     0.0000     0.0000 C
3 H3     0.5559     0.9314     0.0000 H
4 H4     0.5686    -0.9265    -0.0001 H
5 H5    -1.9061     0.9226    -0.0001 H
6 C6    -2.0971    -1.2694    -0.0002 C
7 O7    -1.6031    -2.3842    -0.0014 O
8 O8    -3.4183    -0.9633    -0.0029 O
9 C9    -4.3117    -2.0860     0.0018 C
10 C10    -4.5751    -2.5519    -1.4179 C
11 H11    -5.2481    -1.7477     0.4576 H
12 H12    -3.9261    -2.9004     0.6260 H
13 H13    -4.9608    -1.7282    -2.0275 H
14 H14    -5.3011    -3.3697    -1.4293 H
15 H15    -3.6526    -2.8968    -1.8957 H
16 C16     5.6860    -1.7358    -4.1537 C
17 H17     6.4768    -1.3832    -4.8091 H
18 H18     5.0220    -2.4939    -4.5525 H
19 H19     6.2754    -0.4769    -2.5959 H
20 C20     5.5647    -1.2374    -2.9182 C
21 C21     4.5740    -1.5976    -1.9296 C
22 C22     3.5922    -2.4959    -2.0619 C
23 H23     4.6548    -1.0675    -0.9817 H
24 H24     3.4274    -3.0734    -2.9608 H
25 O25     2.7136    -2.7441    -1.0390 O
26 C26     1.7446    -3.7320    -1.3777 C
27 H27     1.0860    -3.8718    -0.5157 H
28 H28     2.2273    -4.6896    -1.6008 H
29 H29     1.1352    -3.4038    -2.2267 H
30 C30     3.0316    -1.9221    -5.1422 C
31 H31     3.1307    -1.6185    -6.1801 H
32 H32     2.5377    -2.8684    -4.9544 H
33 H33     3.9912    -0.2053    -4.4415 H
34 C34     3.5078    -1.1419    -4.1653 C
35 C35     3.4562    -1.4002    -2.7444 C
36 C36     2.9238    -2.4662    -2.1372 C
37 H37     3.9056    -0.6299    -2.1193 H
38 H38     2.4549    -3.2837    -2.6669 H
39 O39     2.9414    -2.5887    -0.7718 O
40 C40     2.3258    -3.7924    -0.3225 C
41 H41     2.3802    -3.8150     0.7697 H
42 H42     2.8556    -4.6687    -0.7116 H
43 H43     1.2707    -3.8221    -0.6152 H
44 C44    -2.4682    -7.1924    -2.3712 C
45 H45    -3.3679    -7.6454    -2.7767 H
46 H46    -2.5575    -6.7064    -1.4066 H
47 H47    -1.3175    -7.7577    -4.0191 H
48 C48    -1.3200    -7.2492    -3.0555 C
49 C49    -0.0438    -6.7002    -2.6576 C
50 C50     0.2314    -6.0324    -1.5321 C
51 H51     0.7676    -6.8594    -3.3665 H
52 H52    -0.5027    -5.8228    -0.7667 H
53 O53     1.4933    -5.5618    -1.2755 O
54 C54     1.5796    -4.8796    -0.0278 C
55 H55     2.6103    -4.5374     0.1020 H
56 H56     1.3334    -5.5523     0.8009 H
57 H57     0.9223    -4.0034    -0.0175 H
58 C58    -5.6033    -6.1141     1.7122 C
59 H59    -6.6732    -6.0766     1.8943 H
60 H60    -4.9710    -5.5620     2.3977 H
61 H61    -5.8273    -7.3443     0.0403 H
62 C62    -5.1212    -6.8177     0.6816 C
63 C63    -3.7339    -6.9677     0.3055 C
64 C64    -2.6706    -6.4327     0.9151 C
65 H65    -3.5589    -7.5880    -0.5724 H
66 H66    -2.7378    -5.8038     1.7918 H
67 O67    -1.3995    -6.6556     0.4524 O
68 C68    -0.4084    -5.9995     1.2379 C
69 H69     0.5713    -6.2252     0.8069 H
70 H70    -0.4236    -6.3676     2.2695 H
71 H71    -0.5517    -4.9138     1.2169 H
72 C72    -2.2013    -7.9384    -2.9363 C
73 H73    -2.9168    -8.4010    -3.6095 H
74 H74    -2.1354    -6.8569    -2.9608 H
75 H75    -1.5814    -9.7774    -2.1664 H
76 C76    -1.4519    -8.6963    -2.1277 C
77 C77    -0.4611    -8.2390    -1.1802 C
78 C78    -0.1059    -6.9738    -0.9322 C
79 H79     0.0377    -9.0274    -0.6183 H
80 H80    -0.5403    -6.1212    -1.4354 H
81 O81     0.8551    -6.6750    -0.0011 O
82 C82     1.0885    -5.2744     0.1142 C
83 H83     1.8626    -5.1199     0.8714 H
84 H84     0.1807    -4.7545     0.4392 H
85 H85     1.4476    -4.8606    -0.8343 H
86 C86     1.7757    -4.9972    -4.4667 C
87 H87     1.5816    -5.3676    -5.4688 H
88 H88     1.6442    -5.6995    -3.6518 H
89 H89     2.2661    -3.0885    -5.1564 H
90 C90     2.1578    -3.7286    -4.2813 C
91 C91     2.4530    -3.0857    -3.0211 C
92 C92     2.4005    -3.6358    -1.8033 C
93 H93     2.7481    -2.0400    -3.0952 H
94 H94     2.1196    -4.6641    -1.6234 H
95 O95     2.7077    -2.9096    -0.6817 O
96 C96     2.5913    -3.6747     0.5143 C
97 H97     2.8511    -3.0286     1.3579 H
98 H98     3.2857    -4.5218     0.5031 H
99 H99     1.5627    -4.0249     0.6533 H
100 C100     1.3818     6.6709     2.0503 C
101 H101     1.3211     7.3248     2.9151 H
102 H102     1.3357     7.1431     1.0760 H
103 H103     1.5458     4.9562     3.2302 H
104 C104     1.5071     5.3491     2.2147 C
105 C105     1.6002     4.3496     1.1751 C
106 C106     1.5788     4.5556    -0.1461 C
107 H107     1.6978     3.3242     1.5291 H
108 H108     1.4856     5.5336    -0.5972 H
109 O109     1.6764     3.5118    -1.0297 O
110 C110     1.6340     3.9392    -2.3880 C
111 H111     1.7168     3.0542    -3.0256 H
112 H112     2.4744     4.6049    -2.6126 H
113 H113     0.6829     4.4353    -2.6100 H
114 C114     6.4471     2.9701    -2.4719 C
115 H115     7.4598     3.3486    -2.3702 H
116 H116     6.2654     2.2701    -3.2791 H
117 H117     5.7603     4.0762    -0.8397 H
118 C118     5.4922     3.3692    -1.6242 C
119 C119     4.1054     2.9624    -1.6241 C
120 C120     3.5144     2.1116    -2.4698 C
121 H121     3.4939     3.4098    -0.8418 H
122 H122     4.0329     1.6157    -3.2786 H
123 O123     2.1817     1.8098    -2.3586 O
124 C124     1.7451     0.8862    -3.3515 C
125 H125     0.6789     0.6983    -3.1957 H
126 H126     2.2794    -0.0656    -3.2589 H
127 H127     1.8778     1.3034    -4.3556 H
128 C128    -0.9219     5.5397     4.6257 C
129 H129    -1.4775     5.8691     5.4987 H
130 H130    -0.0166     6.0858     4.3876 H
131 H131    -2.2824     4.0117     4.2094 H
132 C132    -1.3617     4.5055     3.9001 C
133 C133    -0.7432     3.9477     2.7191 C
134 C134     0.3841     4.3586     2.1284 C
135 H135    -1.2694     3.1017     2.2791 H
136 H136     0.9787     5.1874     2.4864 H
137 O137     0.8649     3.7372     1.0049 O
138 C138     2.0737     4.3232     0.5305 C
139 H139     2.3902     3.7748    -0.3615 H
140 H140     2.8659     4.2431     1.2827 H
141 H141     1.9148     5.3706     0.2521 H
142 C142     0.2413    -5.5509    -8.3778 C
143 H143     0.3299    -5.9020    -9.4015 H
144 H144    -0.7437    -5.5977    -7.9282 H
145 H145     2.2708    -5.0759    -8.2568 H
146 C146     1.3169    -5.0884    -7.7305 C
147 C147     1.3667    -4.5881    -6.3756 C
148 C148     0.3491    -4.4926    -5.5131 C
149 H149     2.3496    -4.2586    -6.0418 H
150 H150    -0.6630    -4.7923    -5.7471 H
151 O151     0.5336    -3.9964    -4.2485 O
152 C152    -0.6705    -3.9771    -3.4873 C
153 H153    -0.4409    -3.5708    -2.4980 H
154 H154    -1.0660    -4.9906    -3.3596 H
155 H155    -1.4186    -3.3311    -3.9594 H
156 C156    -6.7195     1.8618    -0.4760 C
157 H157    -6.9408     2.3422    -1.4245 H
158 H158    -5.7174     1.9914    -0.0843 H
159 H159    -8.6447     1.0709    -0.3106 H
160 C160    -7.6620     1.1509     0.1533 C
161 C161    -7.5290     0.4551     1.4129 C
162 C162    -6.4406     0.3898     2.1872 C
163 H163    -8.4247    -0.0657     1.7486 H
164 H164    -5.5037     0.8711     1.9434 H
165 O165    -6.4484    -0.3093     3.3665 O
166 C166    -5.1951    -0.2569     4.0420 C
167 H167    -5.2828    -0.8344     4.9667 H
168 H168    -4.9376     0.7751     4.3040 H
169 H169    -4.4047    -0.7049     3.4301 H
170 C170     3.4651    -2.1650    -6.0593 C
171 H171     4.1875    -1.6560    -6.6904 H
172 H172     2.6025    -1.5906    -5.7419 H
173 H173     4.5554    -3.9455    -6.0714 H
174 C174     3.6604    -3.4411    -5.7084 C
175 C175     2.8006    -4.2556    -4.8803 C
176 C176     1.6485    -3.8891    -4.3086 C
177 H177     3.1481    -5.2748    -4.7175 H
178 H178     1.2187    -2.9022    -4.4089 H
179 O179     0.9254    -4.7657    -3.5415 O
180 C180    -0.2677    -4.1842    -3.0239 C
181 H181    -0.7842    -4.9419    -2.4275 H
182 H182    -0.9332    -3.8738    -3.8367 H
183 H183    -0.0355    -3.3340    -2.3736 H
184 C184    -6.4539    -5.0921     3.9204 C
185 H185    -6.0603    -5.1793     4.9287 H
186 H186    -7.3878    -4.5546     3.8048 H
187 H187    -4.8593    -6.1582     3.0957 H
188 C188    -5.7925    -5.6340     2.8915 C
189 C189    -6.1791    -5.6068     1.4993 C
190 C190    -7.2693    -5.0357     0.9760 C
191 H191    -5.4935    -6.1122     0.8206 H
192 H192    -8.0097    -4.5110     1.5635 H
193 O193    -7.5191    -5.0831    -0.3712 O
194 C194    -8.7274    -4.4177    -0.7273 C
195 H195    -8.8542    -4.4997    -1.8106 H
196 H196    -8.6775    -3.3550    -0.4662 H
197 H197    -9.5888    -4.8906    -0.2433 H
198 C198    -7.6876     0.7392     7.6611 C
199 H199    -8.2152     0.7838     8.6092 H
200 H200    -7.0087     1.5546     7.4404 H
201 H201    -8.5897    -1.0664     7.1271 H
202 C202    -7.8891    -0.2876     6.8276 C
203 C203    -7.2698    -0.4940     5.5382 C
204 C204    -6.3796     0.3006     4.9345 C
205 H205    -7.5762    -1.4015     5.0198 H
206 H206    -6.0121     1.2218     5.3647 H
207 O207    -5.8668    -0.0138     3.7025 O
208 C208    -4.9364     0.9575     3.2330 C
209 H209    -4.5757     0.6363     2.2516 H
210 H210    -4.0771     1.0311     3.9082 H
211 H211    -5.4185     1.9345     3.1194 H
212 C212     0.4829    -7.5249    -2.7091 C
213 H213     0.2219    -8.2835    -3.4409 H
214 H214     0.1651    -7.7005    -1.6880 H
215 H215     1.4463    -6.3382    -4.1315 H
216 C216     1.1652    -6.4367    -3.0834 C
217 C217     1.5870    -5.3428    -2.2384 C
218 C218     1.3759    -5.2107    -0.9245 C
219 H219     2.1347    -4.5513    -2.7482 H
220 H220     0.8443    -5.9392    -0.3282 H
221 O221     1.8327    -4.1155    -0.2379 O
222 C222     1.5064    -4.1634     1.1481 C
223 H223     1.9028    -3.2608     1.6221 H
224 H224     1.9681    -5.0341     1.6262 H
225 H225     0.4206    -4.1789     1.2916 H
226 C226    -2.6090    -9.2927    -5.9704 C
227 H227    -2.6842    -9.9234    -6.8512 H
228 H228    -1.8345    -8.5346    -5.9765 H
229 H229    -4.1989   -10.2554    -5.0194 H
230 C230    -3.4483    -9.4692    -4.9437 C
231 C231    -3.4797    -8.7194    -3.7087 C
232 C232    -2.6773    -7.7085    -3.3583 C
233 H233    -4.2482    -9.0281    -3.0015 H
234 H234    -1.8854    -7.3279    -3.9882 H
235 O235    -2.8147    -7.0788    -2.1482 O
236 C236    -1.8667    -6.0311    -1.9659 C
237 H237    -2.0411    -5.5819    -0.9840 H
238 H238    -1.9948    -5.2541    -2.7274 H
239 H239    -0.8444    -6.4237    -1.9880 H
240 C240    -1.1985    -5.7107    -2.2990 C
241 H241    -1.4149    -5.7362    -1.2352 H
242 H242    -1.5705    -6.5369    -2.8936 H
243 H243    -0.1660    -3.9021    -2.1498 H
244 C244    -0.5031    -4.6930    -2.8191 C
245 C245    -0.1342    -4.5115    -4.2046 C
246 C246    -0.4173    -5.3246    -5.2279 C
247 H247     0.4358    -3.6077    -4.4151 H
248 H248    -0.9763    -6.2441    -5.1238 H
249 O249    -0.0049    -5.0330    -6.5024 O
250 C250    -0.4058    -6.0215    -7.4468 C
251 H251    -0.0410    -5.7179    -8.4323 H
252 H252    -1.4977    -6.0958    -7.4920 H
253 H253     0.0342    -6.9943    -7.2018 H
254 C254    -6.5552     2.5019     0.8954 C
255 H255    -7.0202     3.2340     0.2419 H
256 H256    -5.5630     2.7354     1.2635 H
257 H257    -8.1993     1.2187     0.7975 H
258 C258    -7.2036     1.3752     1.2114 C
259 C259    -6.7273     0.3083     2.0619 C
260 C260    -5.5501     0.2448     2.6933 C
261 H261    -7.4183    -0.5239     2.1881 H
262 H262    -4.7967     1.0176     2.6326 H
263 O263    -5.2204    -0.8320     3.4753 O
264 C264    -3.9267    -0.7087     4.0589 C
265 H265    -3.7398    -1.6010     4.6633 H
266 H266    -3.8779     0.1674     4.7147 H
267 H267    -3.1547    -0.6501     3.2841 H
268 C268    -0.8297    -7.1700     1.0701 C
269 H269    -0.4330    -6.8832     2.0394 H
270 H270    -1.0870    -8.2143     0.9366 H
271 H271    -0.6977    -5.2238     0.3258 H
272 C272    -0.9813    -6.2530     0.1079 C
273 C273    -1.4918    -6.4705    -1.2265 C
274 C274    -1.9087    -7.6274    -1.7519 C
275 H275    -1.5324    -5.5819    -1.8549 H
276 H276    -1.9086    -8.5639    -1.2117 H
277 O277    -2.3731    -7.6965    -3.0400 O
278 C278    -2.7679    -9.0145    -3.4094 C
279 H279    -3.1237    -8.9857    -4.4433 H
280 H280    -3.5870    -9.3675    -2.7735 H
281 H281    -1.9183    -9.7039    -3.3569 H
282 C282     3.7066    -7.8666    -2.9021 C
283 H283     4.6088    -8.4634    -2.8066 H
284 H284     3.4995    -7.1623    -2.1049 H
285 H285     3.1922    -8.7498    -4.7228 H
286 C286     2.9099    -8.0183    -3.9661 C
287 C287     1.6825    -7.3066    -4.2406 C
288 C288     1.1109    -6.3630    -3.4846 C
289 H289     1.1860    -7.5850    -5.1691 H
290 H290     1.5235    -6.0169    -2.5473 H
291 O291    -0.0623    -5.7632    -3.8632 O
292 C292    -0.5057    -4.7874    -2.9247 C
293 H293    -1.4405    -4.3581    -3.2965 H
294 H294     0.2286    -3.9804    -2.8268 H
295 H295    -0.7018    -5.2467    -1.9497 H
296 C296    -8.5609    -5.7122     3.0747 C
297 H297    -9.4724    -5.5382     3.6387 H
298 H298    -7.6625    -5.9122     3.6468 H
299 H299    -9.5273    -5.4661     1.2404 H
300 C300    -8.5804    -5.6743     1.7376 C
301 C301    -7.4620    -5.8827     0.8464 C
302 C302    -6.1976    -6.1525     1.1884 C
303 H303    -7.6975    -5.8071    -0.2143 H
304 H304    -5.8624    -6.2477     2.2117 H
305 O305    -5.2263    -6.3290     0.2370 O
306 C306    -3.9493    -6.6071     0.8039 C
307 H307    -3.2344    -6.7340    -0.0143 H
308 H308    -3.9756    -7.5354     1.3848 H
309 H309    -3.6118    -5.7737     1.4294 H
310 C310    -3.3904    -3.6508     7.4913 C
311 H311    -4.0355    -3.9859     8.2979 H
312 H312    -2.8189    -4.4125     6.9736 H
313 H313    -3.9353    -1.6518     7.7482 H
314 C314    -3.3270    -2.3521     7.1767 C
315 C315    -2.5240    -1.7482     6.1379 C
316 C316    -1.6933    -2.3717     5.2955 C
317 H317    -2.6217    -0.6671     6.0496 H
318 H318    -1.5264    -3.4398     5.3016 H
319 O319    -0.9858    -1.6755     4.3498 O
320 C320    -0.1595    -2.5197     3.5534 C
321 H321     0.3680    -1.8931     2.8283 H
322 H322    -0.7643    -3.2484     3.0028 H
323 H323     0.5855    -3.0308     4.1727 H
324 C324     2.4047    -4.6020     4.4187 C
325 H325     2.3005    -4.8600     5.4684 H
326 H326     3.4076    -4.6193     4.0082 H
327 H327     0.3534    -4.2901     4.1860 H
328 C328     1.3260    -4.2828     3.6948 C
329 C329     1.2950    -3.9184     2.2967 C
330 C330     2.3367    -3.8311     1.4626 C
331 H331     0.3055    -3.6947     1.9005 H
332 H332     3.3571    -4.0325     1.7575 H
333 O333     2.1682    -3.4719     0.1503 O
334 C334     3.3971    -3.4372    -0.5695 C
335 H335     3.1790    -3.1444    -1.6007 H
336 H336     3.8668    -4.4266    -0.5849 H
337 H337     4.0793    -2.6964    -0.1386 H
338 C338    -6.2140    -6.6669     5.3231 C
339 H339    -6.8247    -7.5228     5.5950 H
340 H340    -5.6344    -6.2082     6.1157 H
341 H341    -6.8134    -6.7446     3.3246 H
342 C342    -6.2004    -6.2250     4.0605 C
343 C343    -5.4472    -5.1070     3.5397 C
344 C344    -4.6224    -4.3034     4.2196 C
345 H345    -5.5812    -4.9166     2.4757 H
346 H346    -4.4221    -4.4085     5.2768 H
347 O347    -3.9648    -3.2719     3.6005 O
348 C348    -3.1360    -2.5359     4.4955 C
349 H349    -2.6497    -1.7365     3.9289 H
350 H350    -2.3577    -3.1780     4.9217 H
351 H351    -3.7336    -2.0788     5.2917 H
352 C352    -1.3930     3.6398     1.7867 C
353 H353    -2.2219     3.3238     2.4129 H
354 H354    -1.6318     4.2809     0.9460 H
355 H355     0.0048     2.5943     2.9322 H
356 C356    -0.1478     3.2390     2.0672 C
357 C357     1.0557     3.5686     1.3382 C
358 C358     1.1532     4.3354     0.2469 C
359 H359     1.9707     3.1345     1.7389 H
360 H360     0.3060     4.8111    -0.2271 H
361 O361     2.3645     4.5698    -0.3510 O
362 C362     2.2556     5.4090    -1.4971 C
363 H363     3.2575     5.5470    -1.9138 H
364 H364     1.8587     6.3923    -1.2226 H
365 H365     1.6260     4.9422    -2.2624 H
366 C366     3.9742    -5.1235     6.0032 C
367 H367     4.5645    -5.2801     6.9010 H
368 H368     4.4198    -4.5151     5.2248 H
369 H369     2.3845    -6.2684     6.7251 H
370 C370     2.7578    -5.6698     5.8948 C
371 C371     1.8521    -5.5578     4.7743 C
372 C372     2.0573    -4.8880     3.6351 C
373 H373     0.9057    -6.0838     4.8922 H
374 H374     2.9614    -4.3351     3.4213 H
375 O375     1.1091    -4.8622     2.6452 O
376 C376     1.5182    -4.0966     1.5156 C
377 H377     0.7129    -4.1250     0.7759 H
378 H378     2.4181    -4.5248     1.0610 H
379 H379     1.6911    -3.0519     1.7959 H
380 C380    -1.7630    -7.0747     5.6532 C
381 H381    -1.4354    -8.0183     6.0793 H
382 H382    -1.3559    -6.1719     6.0934 H
383 H383    -2.9894    -8.0164     4.2503 H
384 C384    -2.6289    -7.0623     4.6335 C
385 C385    -3.1596    -5.8997     3.9588 C
386 C386    -2.8864    -4.6179     4.2251 C
387 H387    -3.8554    -6.1143     3.1490 H
388 H388    -2.2106    -4.3006     5.0069 H
389 O389    -3.4621    -3.6040     3.5039 O
390 C390    -3.0429    -2.3147     3.9417 C
391 H391    -3.5429    -1.5656     3.3210 H
392 H392    -1.9609    -2.1956     3.8201 H
393 H393    -3.3317    -2.1455     4.9847 H
394 C394     0.3568     3.7562    -1.0597 C
395 H395    -0.1041     3.3029    -1.9322 H
396 H396    -0.2902     4.3328    -0.4089 H
397 H397     2.2426     2.9956    -1.5336 H
398 C398     1.6640     3.5912    -0.8281 C
399 C399     2.4240     4.1245     0.2794 C
400 C400     1.9657     4.8827     1.2812 C
401 H401     3.4826     3.8685     0.2777 H
402 H402     0.9337     5.1911     1.3738 H
403 O403     2.7989     5.3254     2.2759 O
404 C404     2.1198     6.1167     3.2466 C
405 H405     2.8482     6.4290     4.0006 H
406 H406     1.3374     5.5341     3.7447 H
407 H407     1.6939     7.0151     2.7869 H
408 C408     1.1311     3.4775    -1.4715 C
409 H409     1.5248     2.7728    -2.1978 H
410 H410     0.1759     3.9347    -1.7017 H
411 H411     2.7715     3.2423    -0.2015 H
412 C412     1.8180     3.7464    -0.3554 C
413 C413     1.4351     4.6531     0.7029 C
414 C414     0.3236     5.3941     0.7674 C
415 H415     2.1434     4.7249     1.5270 H
416 H416    -0.4400     5.3942     0.0022 H
417 O417     0.0804     6.2188     1.8352 O
418 C418    -1.1536     6.9205     1.7146 C
419 H419    -1.2733     7.5523     2.5994 H
420 H420    -1.9960     6.2216     1.6744 H
421 H421    -1.1490     7.5656     0.8293 H
422 C422    -4.8238    -4.4714    -6.8497 C
423 H423    -5.3016    -4.1085    -7.7549 H
424 H424    -3.7451    -4.3812    -6.7963 H
425 H425    -6.6408    -5.0525    -6.0011 H
426 C426    -5.5609    -4.9994    -5.8660 C
427 C427    -5.0819    -5.5238    -4.6074 C
428 C428    -3.8134    -5.5807    -4.1878 C
429 H429    -5.8553    -5.9090    -3.9444 H
430 H430    -2.9746    -5.2254    -4.7699 H
431 O431    -3.4931    -6.1065    -2.9628 O
432 C432    -2.0925    -6.0760    -2.7036 C
433 H433    -1.9203    -6.5098    -1.7144 H
434 H434    -1.7207    -5.0457    -2.6969 H
435 H435    -1.5475    -6.6747    -3.4415 H
436 C436    -3.4477    -5.5083     2.4433 C
437 H437    -2.9783    -4.6323     2.8809 H
438 H438    -2.8153    -6.1554     1.8467 H
439 H439    -5.3113    -5.0461     3.2634 H
440 C440    -4.7474    -5.7484     2.6502 C
441 C441    -5.5167    -6.8614     2.1424 C
442 C442    -5.0763    -7.8610     1.3707 C
443 H443    -6.5665    -6.8665     2.4322 H
444 H444    -4.0541    -7.9470     1.0296 H
445 O445    -5.9167    -8.8616     0.9558 O
446 C446    -5.2569    -9.8286     0.1439 C
447 H447    -5.9898   -10.5877    -0.1442 H
448 H448    -4.4528   -10.3209     0.7016 H
449 H449    -4.8630    -9.3670    -0.7680 H
450 C450    -1.7749    -4.8757    -4.3141 C
451 H451    -2.6698    -4.9683    -4.9223 H
452 H452    -1.5992    -3.9142    -3.8459 H
453 H453    -1.2007    -6.8502    -4.6759 H
454 C454    -0.9493    -5.9184    -4.1701 C
455 C455     0.2734    -5.9584    -3.4007 C
456 C456     0.8107    -4.9626    -2.6879 C
457 H457     0.7975    -6.9129    -3.4175 H
458 H458     0.3691    -3.9791    -2.6074 H
459 O459     1.9836    -5.1342    -1.9991 O
460 C460     2.3876    -3.9575    -1.3049 C
461 H461     3.3247    -4.1748    -0.7842 H
462 H462     1.6385    -3.6695    -0.5593 H
463 H463     2.5661    -3.1348    -2.0056 H
464 C464    -9.0940     2.2305    -4.6419 C
465 H465    -9.9072     2.9245    -4.4517 H
466 H466    -8.7362     2.1645    -5.6628 H
467 H467    -8.9994     1.6337    -2.6434 H
468 C468    -8.5806     1.5061    -3.6412 C
469 C469    -7.5044     0.5454    -3.7275 C
470 C470    -6.8186     0.1987    -4.8220 C
471 H471    -7.2400     0.0638    -2.7872 H
472 H472    -7.0037     0.6179    -5.8012 H
473 O473    -5.8143    -0.7327    -4.7659 O
474 C474    -5.2087    -0.9615    -6.0350 C
475 H475    -4.4231    -1.7117    -5.9066 H
476 H476    -4.7489    -0.0439    -6.4175 H
477 H477    -5.9413    -1.3496    -6.7510 H
478 C478     3.4444    -2.8676     0.1858 C
479 H479     2.8587    -3.4115     0.9210 H
480 H480     4.3873    -2.4524     0.5220 H
481 H481     2.0350    -3.1837    -1.3218 H
482 C482     2.9946    -2.7348    -1.0671 C
483 C483     3.6487    -2.0462    -2.1563 C
484 C484     4.8257    -1.4122    -2.1188 C
485 H485     3.1064    -2.0575    -3.1007 H
486 H486     5.4400    -1.3440    -1.2318 H
487 O487     5.3362    -0.7952    -3.2316 O
488 C488     6.5967    -0.1786    -2.9854 C
489 H489     6.9342     0.2881    -3.9153 H
490 H490     7.3415    -0.9232    -2.6841 H
491 H491     6.5053     0.6018    -2.2222 H
492 C492    -3.8099    -6.0664     0.4010 C
493 H493    -2.8957    -5.7065     0.8635 H
494 H494    -3.8888    -5.9592    -0.6746 H
495 H495    -4.6135    -6.6806     2.2275 H
496 C496    -4.7738    -6.6110     1.1520 C
497 C497    -6.0407    -7.1341     0.6939 C
498 C498    -6.4893    -7.1729    -0.5653 C
499 H499    -6.6838    -7.5350     1.4761 H
500 H500    -5.9284    -6.8014    -1.4115 H
501 O501    -7.7189    -7.6998    -0.8657 O
502 C502    -8.0106    -7.6484    -2.2592 C
503 H503    -9.0015    -8.0845    -2.4154 H
504 H504    -7.2827    -8.2345    -2.8306 H
505 H505    -8.0308    -6.6123    -2.6141 H
506 C506   -11.5371    -3.4770     0.4851 C
507 H507   -12.2932    -3.6965     1.2330 H
508 H508   -11.8086    -3.6492    -0.5499 H
509 H509   -10.1466    -2.8720     1.9202 H
510 C510   -10.3373    -3.0170     0.8573 C
511 C511    -9.2301    -2.6791    -0.0078 C
512 C512    -9.1946    -2.7619    -1.3422 C
513 H513    -8.3382    -2.3204     0.5039 H
514 H514   -10.0259    -3.1051    -1.9421 H
515 O515    -8.0732    -2.4074    -2.0466 O
516 C516    -8.2370    -2.5673    -3.4527 C
517 H517    -7.3053    -2.2657    -3.9400 H
518 H518    -9.0433    -1.9264    -3.8255 H
519 H519    -8.4335    -3.6150    -3.7045 H
520 C520     1.6664     1.0763     4.6428 C
521 H521     2.4683     1.7727     4.8690 H
522 H522     1.8090     0.0483     4.9548 H
523 H523     0.5048     2.5511     3.7292 H
524 C524     0.5676     1.4997     4.0079 C
525 C525    -0.5810     0.7054     3.6359 C
526 C526    -0.7634    -0.6011     3.8554 C
527 H527    -1.3716     1.2506     3.1223 H
528 H528    -0.0403    -1.2299     4.3559 H
529 O529    -1.9077    -1.2371     3.4483 O
530 C530    -1.9087    -2.6238     3.7750 C
531 H531    -2.8484    -3.0562     3.4194 H
532 H532    -1.8523    -2.7678     4.8594 H
533 H533    -1.0816    -3.1412     3.2768 H
534 C534     0.2465    -3.0548    -3.2226 C
535 H535    -0.7555    -2.9071    -2.8307 H
536 H536     0.4760    -2.5803    -4.1696 H
537 H537     0.8185    -4.2352    -1.5982 H
538 C538     1.1316    -3.7933    -2.5437 C
539 C539     2.4947    -4.0840    -2.9256 C
540 C540     3.1291    -3.6708    -4.0281 C
541 H541     3.0464    -4.7089    -2.2248 H
542 H542     2.6705    -3.0486    -4.7839 H
543 O543     4.4321    -4.0208    -4.2715 O
544 C544     4.9239    -3.4817    -5.4951 C
545 H545     5.9622    -3.8042    -5.6156 H
546 H546     4.9040    -2.3868    -5.4733 H
547 H547     4.3458    -3.8581    -6.3459 H
548 C548     4.1441     3.5223    -0.8421 C
549 H549     5.2129     3.3784    -0.9696 H
550 H550     3.8217     4.0079     0.0716 H
551 H551     3.7010     2.6286    -2.6762 H
552 C552     3.2926     3.1081    -1.7871 C
553 C553     1.8522     3.2241    -1.7697 C
554 C554     1.0983     3.7664    -0.8074 C
555 H555     1.3466     2.8193    -2.6453 H
556 H556     1.5029     4.1944     0.0992 H
557 O557    -0.2675     3.8130    -0.9162 O
558 C558    -0.8854     4.4283     0.2105 C
559 H559    -1.9671     4.4266     0.0480 H
560 H560    -0.5549     5.4672     0.3160 H
561 H561    -0.6741     3.8647     1.1257 H
562 C562    -0.5378    -5.1456    -3.2098 C
563 H563    -1.5849    -4.8605    -3.1708 H
564 H564    -0.1487    -5.4469    -4.1754 H
565 H565    -0.2616    -4.7995    -1.1695 H
566 C566     0.2088    -5.1151    -2.1002 C
567 C567     1.6071    -5.4613    -1.9844 C
568 C568     2.4188    -5.8770    -2.9626 C
569 H569     2.0242    -5.3659    -0.9829 H
570 H570     2.1024    -6.0040    -3.9885 H
571 O571     3.7343    -6.1744    -2.7162 O
572 C572     4.4278    -6.5983    -3.8863 C
573 H573     5.4632    -6.8150    -3.6080 H
574 H574     4.4335    -5.8064    -4.6431 H
575 H575     3.9821    -7.5127    -4.2925 H
576 C576    -3.1712    -1.0797     3.9315 C
577 H577    -2.8410    -1.9082     4.5511 H
578 H578    -4.1302    -1.1895     3.4387 H
579 H579    -1.4550     0.0392     4.3340 H
580 C580    -2.4064     0.0104     3.8036 C
581 C581    -2.6996     1.1904     3.0225 C
582 C582    -3.7891     1.4163     2.2806 C
583 H583    -1.9367     1.9670     3.0565 H
584 H584    -4.6018     0.7103     2.1815 H
585 O585    -3.9441     2.5868     1.5837 O
586 C586    -5.1689     2.6331     0.8575 C
587 H587    -5.2167     3.5914     0.3323 H
588 H588    -6.0261     2.5698     1.5366 H
589 H589    -5.2102     1.8304     0.1133 H
590 C590     3.8592    -2.7924    -1.0474 C
591 H591     4.0739    -3.8057    -0.7213 H
592 H592     3.7264    -2.6391    -2.1120 H
593 H593     3.9169    -2.0437     0.9008 H
594 C594     3.7695    -1.8029    -0.1515 C
595 C595     3.4921    -0.4103    -0.4205 C
596 C596     3.2728     0.1526    -1.6136 C
597 H597     3.4633     0.2320     0.4585 H
598 H598     3.2799    -0.3973    -2.5444 H
599 O599     3.0195     1.4949    -1.7303 O
600 C600     2.8135     1.8974    -3.0813 C
601 H601     2.6188     2.9738    -3.0894 H
602 H602     1.9444     1.3873    -3.5107 H
603 H603     3.7070     1.7048    -3.6849 H
604 C604     3.0340    -0.8393    -2.1780 C
605 H605     2.3417    -0.4308    -2.9082 H
606 H606     2.8062    -1.8234    -1.7853 H
607 H607     4.2624     0.8476    -2.2470 H
608 C608     4.1077    -0.1351    -1.8025 C
609 C609     5.1177    -0.5337    -0.8488 C
610 C610     5.1709    -1.6799    -0.1619 C
611 H611     5.9122     0.1937    -0.6878 H
612 H612     4.4325    -2.4645    -0.2502 H
613 O613     6.1912    -1.9346     0.7177 O
614 C614     6.0662    -3.2064     1.3472 C
615 H615     6.9123    -3.3330     2.0288 H
616 H616     6.0982    -4.0120     0.6057 H
617 H617     5.1419    -3.2614     1.9324 H
618 C618     2.7768     4.9153    -2.7697 C
619 H619     3.5544     5.0367    -3.5180 H
620 H620     1.7711     5.1965    -3.0596 H
621 H621     4.1172     4.1797    -1.3479 H
622 C622     3.0796     4.4384    -1.5570 C
623 C623     2.1678     4.2187    -0.4576 C
624 C624     0.8506     4.4498    -0.4437 C
625 H625     2.6246     3.8213     0.4477 H
626 H626     0.3036     4.8425    -1.2894 H
627 O627     0.0964     4.1959     0.6727 O
628 C628    -1.2809     4.5080     0.4850 C
629 H629    -1.8110     4.2793     1.4141 H
630 H630    -1.7121     3.8982    -0.3162 H
631 H631    -1.4119     5.5736     0.2676 H
632 C632    -9.9450    -1.8509    -1.2519 C
633 H633   -10.4669    -1.3161    -2.0398 H
634 H634   -10.0270    -1.4469    -0.2495 H
635 H635    -9.2125    -3.2914    -2.5738 H
636 C636    -9.2430    -2.9530    -1.5386 C
637 C637    -8.4974    -3.7735    -0.6115 C
638 C638    -8.3679    -3.5873     0.7064 C
639 H639    -7.9945    -4.6310    -1.0564 H
640 H640    -8.8266    -2.7681     1.2424 H
641 O641    -7.6265    -4.4463     1.4760 O
642 C642    -7.6128    -4.0754     2.8514 C
643 H643    -7.0049    -4.8050     3.3942 H
644 H644    -8.6254    -4.0928     3.2689 H
645 H645    -7.1617    -3.0859     2.9828 H
646 C646    -0.4809    -4.9301    -7.0039 C
647 H647    -0.0272    -4.6648    -7.9542 H
648 H648    -0.2382    -5.9068    -6.6019 H
649 H649    -1.4876    -3.1067    -6.8588 H
650 C650    -1.2964    -4.0690    -6.3849 C
651 C651    -1.9749    -4.2683    -5.1246 C
652 C652    -1.9166    -5.3492    -4.3392 C
653 H653    -2.5956    -3.4349    -4.7984 H
654 H654    -1.3307    -6.2271    -4.5730 H
655 O655    -2.6144    -5.4097    -3.1606 O
656 C656    -2.4200    -6.6419    -2.4724 C
657 H657    -3.0057    -6.6117    -1.5491 H
658 H658    -1.3659    -6.7768    -2.2069 H
659 H659    -2.7734    -7.4845    -3.0765 H
660 C660     4.9145    -6.7989     2.2242 C
661 H661     5.8649    -7.3242     2.2196 H
662 H662     4.2504    -6.9968     3.0575 H
663 H663     5.3341    -5.8128     0.4323 H
664 C664     4.6086    -5.9543     1.2329 C
665 C665     3.3943    -5.1835     1.0923 C
666 C666     2.3477    -5.1681     1.9247 C
667 H667     3.3482    -4.5539     0.2048 H
668 H668     2.2958    -5.7557     2.8306 H
669 O669     1.2503    -4.3861     1.6722 O
670 C670     0.2468    -4.5112     2.6757 C
671 H671    -0.5894    -3.8608     2.4032 H
672 H672     0.6295    -4.1894     3.6503 H
673 H673    -0.1220    -5.5411     2.7305 H
@<TRIPOS>BOND
1 1 2 1
2 1 3 1
3 1 4 1
4 2 5 1
5 2 6 1
6 6 7 1
7 6 8 1
8 8 9 1
9 9 10 1
10 9 11 1
11 9 12 1
12 10 13 1
13 10 14 1
14 10 15 1
15 16 17 1
16 16 18 1
17 16 20 1
18 19 20 1
19 20 21 1
20 21 22 1
21 21 23 1
22 22 24 1
23 22 25 1
24 25 26 1
25 26 27 1
26 26 28 1
27 26 29 1
28 30 31 1
29 30 32 1
30 30 34 1
31 33 34 1
32 34 35 1
33 35 36 1
34 35 37 1
35 36 38 1
36 36 39 1
37 39 40 1
38 40 41 1
39 40 42 1
40 40 43 1
41 44 45 1
42 44 46 1
43 44 48 1
44 47 48 1
45 48 49 1
46 49 50 1
47 49 51 1
48 50 52 1
49 50 53 1
50 53 54 1
51 54 55 1
52 54 56 1
53 54 57 1
54 58 59 1
55 58 60 1
56 58 62 1
57 61 62 1
58 62 63 1
59 63 64 1
60 63 65 1
61 64 66 1
62 64 67 1
63 67 68 1
64 68 69 1
65 68 70 1
66 68 71 1
67 72 73 1
68 72 74 1
69 72 76 1
70 75 76 1
71 76 77 1
72 77 78 1
73 77 79 1
74 78 80 1
75 78 81 1
76 81 82 1
77 82 83 1
78 82 84 1
79 82 85 1
80 86 87 1
81 86 88 1
82 86 90 1
83 89 90 1
84 90 91 1
85 91 92 1
86 91 93 1
87 92 94 1
88 92 95 1
89 95 96 1
90 96 97 1
91 96 98 1
92 96 99 1
93 100 101 1
94 100 102 1
95 100 104 1
96 103 104 1
97 104 105 1
98 105 106 1
99 105 107 1
100 106 108 1
101 106 109 1
102 109 110 1
103 110 111 1
104 110 112 1
105 110 113 1
106 114 115 1
107 114 116 1
108 114 118 1
109 117 118 1
110 118 119 1
111 119 120 1
112 119 121 1
113 120 122 1
114 120 123 1
115 123 124 1
116 124 125 1
117 124 126 1
118 124 127 1
119 128 129 1
120 128 130 1
121 128 132 1
122 131 132 1
123 132 133 1
124 133 134 1
125 133 135 1
126 134 136 1
127 134 137 1
128 137 138 1
129 138 139 1
130 138 140 1
131 138 141 1
132 142 143 1
133 142 144 1
134 142 146 1
135 145 146 1
136 146 147 1
137 147 148 1
138 147 149 1
139 148 150 1
140 148 151 1
141 151 152 1
142 152 153 1
143 152 154 1
144 152 155 1
145 156 157 1
146 156 158 1
147 156 160 1
148 159 160 1
149 160 161 1
150 161 162 1
151 161 163 1
152 162 164 1
153 162 165 1
154 165 166 1
155 166 167 1
156 166 168 1
157 166 169 1
158 170 171 1
159 170 172 1
160 170 174 1
161 173 174 1
162 174 175 1
163 175 176 1
164 175 177 1
165 176 178 1
166 176 179 1
167 179 180 1
168 180 181 1
169 180 182 1
170 180 183 1
171 184 185 1
172 184 186 1
173 184 188 1
174 187 188 1
175 188 189 1
176 189 190 1
177 189 191 1
178 190 192 1
179 190 193 1
180 193 194 1
181 194 195 1
182 194 196 1
183 194 197 1
184 198 199 1
185 198 200 1
186 198 202 1
187 201 202 1
188 202 203 1
189 203 204 1
190 203 205 1
191 204 206 1
192 204 207 1
193 207 208 1
194 208 209 1
195 208 210 1
196 208 211 1
197 212 213 1
198 212 214 1
199 212 216 1
200 215 216 1
201 216 217 1
202 217 218 1
203 217 219 1
204 218 220 1
205 218 221 1
206 221 222 1
207 222 223 1
208 222 224 1
209 222 225 1
210 226 227 1
211 226 228 1
212 226 230 1
213 229 230 1
214 230 231 1
215 231 232 1
216 231 233 1
217 232 234 1
218 232 235 1
219 235 236 1
220 236 237 1
221 236 238 1
222 236 239 1
223 240 241 1
224 240 242 1
225 240 244 1
226 243 244 1
227 244 245 1
228 245 246 1
229 245 247 1
230 246 248 1
231 246 249 1
232 249 250 1
233 250 251 1
234 250 252 1
235 250 253 1
236 254 255 1
237 254 256 1
238 254 258 1
239 257 258 1
240 258 259 1
241 259 260 1
242 259 261 1
243 260 262 1
244 260 263 1
245 263 264 1
246 264 265 1
247 264 266 1
248 264 267 1
249 268 269 1
250 268 270 1
251 268 272 1
252 271 272 1
253 272 273 1
254 273 274 1
255 273 275 1
256 274 276 1
257 274 277 1
258 277 278 1
259 278 279 1
260 278 280 1
261 278 281 1
262 282 283 1
263 282 284 1
264 282 286 1
265 285 286 1
266 286 287 1
267 287 288 1
268 287 289 1
269 288 290 1
270 288 291 1
271 291 292 1
272 292 293 1
273 292 294 1
274 292 295 1
275 296 297 1
276 296 298 1
277 296 300 1
278 299 300 1
279 300 301 1
280 301 302 1
281 301 303 1
282 302 304 1
283 302 305 1
284 305 306 1
285 306 307 1
286 306 308 1
287 306 309 1
288 310 311 1
289 310 312 1
290 310 314 1
291 313 314 1
292 314 315 1
293 315 316 1
294 315 317 1
295 316 318 1
296 316 319 1
297 319 320 1
298 320 321 1
299 320 322 1
300 320 323 1
301 324 325 1
302 324 326 1
303 324 328 1
304 327 328 1
305 328 329 1
306 329 330 1
307 329 331 1
308 330 332 1
309 330 333 1
310 333 334 1
311 334 335 1
312 334 336 1
313 334 337 1
314 338 339 1
315 338 340 1
316 338 342 1
317 341 342 1
318 342 343 1
319 343 344 1
320 343 345 1
321 344 346 1
322 344 347 1
323 347 348 1
324 348 349 1
325 348 350 1
326 348 351 1
327 352 353 1
328 352 354 1
329 352 356 1
330 355 356 1
331 356 357 1
332 357 358 1
333 357 359 1
334 358 360 1
335 358 361 1
336 361 362 1
337 362 363 1
338 362 364 1
339 362 365 1
340 366 367 1
341 366 368 1
342 366 370 1
343 369 370 1
344 370 371 1
345 371 372 1
346 371 373 1
347 372 374 1
348 372 375 1
349 375 376 1
350 376 377 1
351 376 378 1
352 376 379 1
353 380 381 1
354 380 382 1
355 380 384 1
356 383 384 1
357 384 385 1
358 385 386 1
359 385 387 1
360 386 388 1
361 386 389 1
362 389 390 1
363 390 391 1
364 390 392 1
365 390 393 1
366 394 395 1
367 394 396 1
368 394 398 1
369 397 398 1
370 398 399 1
371 399 400 1
372 399 401 1
373 400 402 1
374 400 403 1
375 403 404 1
376 404 405 1
377 404 406 1
378 404 407 1
379 408 409 1
380 408 410 1
381 408 412 1
382 411 412 1
383 412 413 1
384 413 414 1
385 413 415 1
386 414 416 1
387 414 417 1
388 417 418 1
389 418 419 1
390 418 420 1
391 418 421 1
392 422 423 1
393 422 424 1
394 422 426 1
395 425 426 1
396 426 427 1
397 427 428 1
398 427 429 1
399 428 430 1
400 428 431 1
401 431 432 1
402 432 433 1
403 432 434 1
404 432 435 1
405 436 437 1
406 436 438 1
407 436 440 1
408 439 440 1
409 440 441 1
410 441 442 1
411 441 443 1
412 442 444 1
413 442 445 1
414 445 446 1
415 446 447 1
416 446 448 1
417 446 449 1
418 450 451 1
419 450 452 1
420 450 454 1
421 453 454 1
422 454 455 1
423 455 456 1
424 455 457 1
425 456 458 1
426 456 459 1
427 459 460 1
428 460 461 1
429 460 462 1
430 460 463 1
431 464 465 1
432 464 466 1
433 464 468 1
434 467 468 1
435 468 469 1
436 469 470 1
437 469 471 1
438 470 472 1
439 470 473 1
440 473 474 1
441 474 475 1
442 474 476 1
443 474 477 1
444 478 479 1
445 478 480 1
446 478 482 1
447 481 482 1
448 482 483 1
449 483 484 1
450 483 485 1
451 484 486 1
452 484 487 1
453 487 488 1
454 488 489 1
455 488 490 1
456 488 491 1
457 492 493 1
458 492 494 1
459 492 496 1
460 495 496 1
461 496 497 1
462 497 498 1
463 497 499 1
464 498 500 1
465 498 501 1
466 501 502 1
467 502 503 1
468 502 504 1
469 502 505 1
470 506 507 1
471 506 508 1
472 506 510 1
473 509 510 1
474 510 511 1
475 511 512 1
476 511 513 1
477 512 514 1
478 512 515 1
479 515 516 1
480 516 517 1
481 516 518 1
482 516 519 1
483 520 521 1
484 520 522 1
485 520 524 1
486 523 524 1
487 524 525 1
488 525 526 1
489 525 527 1
490 526 528 1
491 526 529 1
492 529 530 1
493 530 531 1
494 530 532 1
495 530 533 1
496 534 535 1
497 534 536 1
498 534 538 1
499 537 538 1
500 538 539 1
501 539 540 1
502 539 541 1
503 540 542 1
504 540 543 1
505 543 544 1
506 544 545 1
507 544 546 1
508 544 547 1
509 548 549 1
510 548 550 1
511 548 552 1
512 551 552 1
513 552 553 1
514 553 554 1
515 553 555 1
516 554 556 1
517 554 557 1
518 557 558 1
519 558 559 1
520 558 560 1
521 558 561 1
522 562 563 1
523 562 564 1
524 562 566 1
525 565 566 1
526 566 567 1
527 567 568 1
528 567 569 1
529 568 570 1
530 568 571 1
531 571 572 1
532 572 573 1
533 572 574 1
534 572 575 1
535 576 577 1
536 576 578 1
537 576 580 1
538 579 580 1
539 580 581 1
540 581 582 1
541 581 583 1
542 582 584 1
543 582 585 1
544 585 586 1
545 586 587 1
546 586 588 1
547 586 589 1
548 590 591 1
549 590 592 1
550 590 594 1
551 593 594 1
552 594 595 1
553 595 596 1
554 595 597 1
555 596 598 1
556 596 599 1
557 599 600 1
558 600 601 1
559 600 602 1
560 600 603 1
561 604 605 1
562 604 606 1
563 604 608 1
564 607 608 1
565 608 609 1
566 609 610 1
567 609 611 1
568 610 612 1
569 610 613 1
570 613 614 1
571 614 615 1
572 614 616 1
573 614 617 1
574 618 619 1
575 618 620 1
576 618 622 1
577 621 622 1
578 622 623 1
579 623 624 1
580 623 625 1
581 624 626 1
582 624 627 1
583 627 628 1
584 628 629 1
585 628 630 1
586 628 631 1
587 632 633 1
588 632 634 1
589 632 636 1
590 635 636 1
591 636 637 1
592 637 638 1
593 637 639 1
594 638 640 1
595 638 641 1
596 641 642 1
597 642 643 1
598 642 644 1
599 642 645 1
600 646 647 1
601 646 648 1
602 646 650 1
603 649 650 1
604 650 651 1
605 651 652 1
606 651 653 1
607 652 654 1
608 652 655 1
609 655 656 1
610 656 657 1
611 656 658 1
612 656 659 1
613 660 661 1
614 660 662 1
615 660 664 1
616 663 664 1
617 664 665 1
618 665 666 1
619 665 667 1
620 666 668 1
621 666 669 1
622 669 670 1
623 670 671 1
624 670 672 1
625 670 673 1
