@<TRIPOS>MOLECULE
Molecule Name
760 711
SMALL
NO_CHARGES

@<TRIPOS>ATOM
1 C1	0.0000	0.0000	0.0000 C
2 H2	-2.0873	0.0000	-0.0000 H
3 C3	-1.1901	0.6157	0.0000 C
4 H4	0.9390	0.5417	0.0413 H
5 H5	0.0556	-1.0841	-0.0195 H
6 C6	-1.4117	2.0507	0.0554 C
7 C7	-0.5766	2.9601	-0.4815 C
8 H8	0.3012	2.6197	-1.0226 H
9 O9	-2.5466	2.4028	0.7636 O
10 C10	-3.6926	2.4870	-0.0839 C
11 H11	-4.5366	2.8220	0.5263 H
12 H12	-3.9446	1.5072	-0.5025 H
13 H13	-3.5464	3.2132	-0.8901 H
14 S14	-0.8128	4.6770	-0.3574 S
15 C15	0.7310	5.2257	-1.0592 C
16 C16	0.8043	5.5724	-2.4119 C
17 C17	2.0129	6.0046	-2.9620 C
18 H18	-0.0774	5.5097	-3.0449 H
19 C19	3.1509	6.0962	-2.1614 C
20 H20	2.0650	6.2729	-4.0140 H
21 C21	1.8737	5.3271	-0.2591 C
22 C22	3.0817	5.7592	-0.8102 C
23 H23	4.0909	6.4353	-2.5895 H
24 H24	3.9667	5.8364	-0.1839 H
25 H25	1.8297	5.0722	0.7972 H
26 C26	0.2882	4.4850	7.8722 C
27 C27	-0.1925	3.4966	7.1074 C
28 H28	0.7788	4.2696	8.8154 H
29 H29	0.2028	5.5270	7.5747 H
30 H30	-0.1079	2.4582	7.4032 H
31 C31	-0.8614	3.7898	5.8218 C
32 O32	-1.0335	4.9033	5.3558 O
33 O33	-1.2424	2.6091	5.2740 O
34 C34	-1.9098	2.7035	4.0074 C
35 C35	-3.3986	2.9110	4.2138 C
36 H36	-1.7395	1.7565	3.4847 H
37 H37	-1.4769	3.4961	3.3862 H
38 H38	-3.8159	2.1112	4.8344 H
39 H39	-3.9247	2.9252	3.2552 H
40 H40	-3.5954	3.8535	4.7344 H
41 C41	-3.8308	6.6222	-1.7475 C
42 C42	-4.3241	7.0350	-2.9218 C
43 H43	-4.3892	6.7655	-0.8287 H
44 H44	-2.8621	6.1339	-1.6777 H
45 H45	-5.2890	7.5217	-2.9921 H
46 C46	-3.5630	6.8400	-4.1744 C
47 O47	-2.4670	6.3122	-4.2571 O
48 O48	-4.2994	7.3531	-5.1911 O
49 C49	-3.7107	7.2451	-6.4951 C
50 C50	-2.8025	8.4314	-6.7598 C
51 H51	-4.5329	7.2428	-7.2181 H
52 H52	-3.1753	6.2960	-6.6139 H
53 H53	-3.3519	9.3707	-6.6386 H
54 H54	-2.3948	8.3891	-7.7737 H
55 H55	-1.9703	8.4553	-6.0492 H
56 C56	1.2256	10.1695	-4.0993 C
57 C57	1.5996	10.3464	-5.3728 C
58 H58	0.5352	10.8567	-3.6222 H
59 H59	1.5990	9.3378	-3.5073 H
60 H60	1.2281	11.1748	-5.9632 H
61 C61	2.5408	9.4099	-6.0235 C
62 O62	3.0442	8.4350	-5.4916 O
63 O63	2.7361	9.8359	-7.2961 O
64 C64	3.6271	9.0345	-8.0852 C
65 C65	5.0606	9.4864	-7.8782 C
66 H66	3.3437	9.1784	-9.1330 H
67 H67	3.5070	7.9678	-7.8631 H
68 H68	5.1642	10.5525	-8.1053 H
69 H69	5.7420	8.9209	-8.5199 H
70 H70	5.3686	9.3513	-6.8366 H
71 C71	-1.7209	1.6123	4.4490 C
72 C72	-1.9226	2.6121	5.3165 C
73 H73	-1.7762	1.7846	3.3796 H
74 H74	-1.4971	0.6034	4.7863 H
75 H75	-2.1458	3.6175	4.9814 H
76 C76	-1.8476	2.3776	6.7744 C
77 O77	-1.6080	1.3054	7.3034 O
78 O78	-2.0948	3.5566	7.3974 O
79 C79	-2.0573	3.5167	8.8311 C
80 C80	-3.4149	3.1194	9.3798 C
81 H81	-1.8034	4.5255	9.1727 H
82 H82	-1.2677	2.8470	9.1912 H
83 H83	-4.1916	3.7980	9.0125 H
84 H84	-3.4133	3.1433	10.4732 H
85 H85	-3.6914	2.1120	9.0528 H
86 C86	-4.0741	3.1055	4.0734 C
87 C87	-5.2199	2.4535	4.3083 C
88 H88	-3.3054	2.6696	3.4445 H
89 H89	-3.8792	4.0851	4.5023 H
90 H90	-5.4148	1.4775	3.8814 H
91 C91	-6.2680	3.0473	5.1656 C
92 O92	-6.1956	4.1329	5.7160 O
93 O93	-7.3010	2.1707	5.2249 O
94 C94	-8.4208	2.5893	6.0183 C
95 C95	-8.2094	2.1998	7.4694 C
96 H96	-9.3028	2.0741	5.6239 H
97 H97	-8.6035	3.6651	5.9145 H
98 H98	-8.0298	1.1232	7.5562 H
99 H99	-9.0833	2.4617	8.0725 H
100 H100	-7.3324	2.7038	7.8877 H
101 C101	4.1622	2.0064	-2.3660 C
102 C102	3.8814	0.9683	-3.1638 C
103 H103	5.1868	2.2396	-2.0971 H
104 H104	3.3782	2.6439	-1.9652 H
105 H105	4.6620	0.3327	-3.5634 H
106 C106	2.4849	0.6500	-3.5304 C
107 O107	1.5016	1.2689	-3.1606 O
108 O108	2.5060	-0.4408	-4.3359 O
109 C109	1.2245	-0.8924	-4.7969 C
110 C110	0.6092	-1.8422	-3.7864 C
111 H111	1.3920	-1.4190	-5.7422 H
112 H112	0.5580	-0.0492	-5.0122 H
113 H113	1.2858	-2.6788	-3.5834 H
114 H114	-0.3412	-2.2382	-4.1552 H
115 H115	0.4306	-1.3380	-2.8314 H
116 C116	-4.7784	-1.8892	-4.8168 C
117 C117	-3.8502	-0.9641	-5.0915 C
118 H118	-4.9994	-2.6820	-5.5234 H
119 H119	-5.3361	-1.8755	-3.8838 H
120 H120	-3.2942	-0.9770	-6.0209 H
121 C121	-3.5489	0.1168	-4.1287 C
122 O122	-4.0889	0.2653	-3.0457 O
123 O123	-2.5808	0.8968	-4.6706 O
124 C124	-2.1563	2.0040	-3.8628 C
125 C125	-3.0481	3.2060	-4.1113 C
126 H126	-1.1290	2.2406	-4.1588 H
127 H127	-2.1313	1.7362	-2.8001 H
128 H128	-3.0613	3.4614	-5.1760 H
129 H129	-2.6971	4.0730	-3.5446 H
130 H130	-4.0823	2.9946	-3.8217 H
131 C131	-3.3341	3.5207	3.5802 C
132 C132	-4.0614	4.4114	4.2662 C
133 H133	-2.3563	3.7833	3.1909 H
134 H134	-3.6975	2.5135	3.3929 H
135 H135	-3.7001	5.4151	4.4531 H
136 C136	-5.3943	4.0539	4.7969 C
137 O137	-5.9353	2.9688	4.6680 O
138 O138	-5.8910	5.1414	5.4371 O
139 C139	-7.1889	4.9721	6.0248 C
140 C140	-8.2698	5.2720	5.0032 C
141 H141	-7.2596	5.6830	6.8546 H
142 H142	-7.3066	3.9686	6.4501 H
143 H143	-8.1393	6.2773	4.5893 H
144 H144	-9.2624	5.2033	5.4573 H
145 H145	-8.2209	4.5727	4.1626 H
146 C146	3.7766	1.5219	0.2687 C
147 C147	3.9709	1.1898	1.5512 C
148 H148	4.1381	0.8849	-0.5314 H
149 H149	3.2542	2.4337	-0.0097 H
150 H150	4.4914	0.2817	1.8294 H
151 C151	3.4785	2.0579	2.6421 C
152 O152	2.8786	3.1084	2.4893 O
153 O153	3.8179	1.4770	3.8196 O
154 C154	3.4105	2.1870	4.9980 C
155 C155	4.4599	3.2141	5.3798 C
156 H156	3.3114	1.4471	5.7990 H
157 H157	2.4261	2.6503	4.8645 H
158 H158	5.4362	2.7359	5.5107 H
159 H159	4.1870	3.7200	6.3101 H
160 H160	4.5770	3.9670	4.5939 H
161 C161	-9.4635	4.5509	1.4873 C
162 C162	-8.7269	5.6571	1.3236 C
163 H163	-10.5444	4.6080	1.5566 H
164 H164	-9.0051	3.5676	1.5555 H
165 H165	-9.1828	6.6371	1.2558 H
166 C166	-7.2534	5.5797	1.2293 C
167 O167	-6.5973	4.5537	1.2892 O
168 O168	-6.7813	6.8411	1.0709 O
169 C169	-5.3558	6.9564	0.9553 C
170 C170	-4.7252	7.0589	2.3315 C
171 H171	-5.1537	7.8715	0.3890 H
172 H172	-4.9332	6.1233	0.3818 H
173 H173	-5.1565	7.8957	2.8907 H
174 H174	-3.6445	7.2065	2.2529 H
175 H175	-4.9126	6.1538	2.9179 H
176 C176	8.1743	7.5904	-3.4090 C
177 C177	8.3956	6.5014	-4.1561 C
178 H178	9.0008	8.1801	-3.0275 H
179 H179	7.1668	7.9158	-3.1628 H
180 H180	9.3990	6.1765	-4.4017 H
181 C181	7.2692	5.6972	-4.6762 C
182 O182	6.0883	5.9335	-4.4851 O
183 O183	7.7894	4.6664	-5.3877 O
184 C184	6.8299	3.7765	-5.9761 C
185 C185	6.4426	2.6945	-4.9856 C
186 H186	7.3091	3.3215	-6.8492 H
187 H187	5.9506	4.3211	-6.3392 H
188 H188	7.3308	2.1594	-4.6339 H
189 H189	5.7564	1.9768	-5.4439 H
190 H190	5.9596	3.1248	-4.1026 H
191 C191	5.6714	8.5502	2.0038 C
192 C192	6.8424	8.0446	1.5965 C
193 H193	5.5483	9.6175	2.1526 H
194 H194	4.8129	7.9119	2.1970 H
195 H195	7.6982	8.6799	1.4039 H
196 C196	7.0107	6.5897	1.3937 C
197 O197	6.1444	5.7498	1.5694 O
198 O198	8.2863	6.3725	0.9876 O
199 C199	8.6287	5.0020	0.7358 C
200 C200	9.0866	4.3324	2.0179 C
201 H201	9.4481	5.0053	0.0096 H
202 H202	7.7940	4.4600	0.2765 H
203 H203	9.9208	4.8844	2.4633 H
204 H204	9.4061	3.3043	1.8258 H
205 H205	8.2831	4.3155	2.7611 H
206 C206	4.1307	9.3955	2.4110 C
207 C207	5.3886	9.4538	1.9561 C
208 H208	3.5961	10.2987	2.6848 H
209 H209	3.6088	8.4481	2.5199 H
210 H210	5.9093	10.3973	1.8475 H
211 C211	6.1177	8.2229	1.5829 C
212 O212	5.6688	7.0912	1.6503 O
213 O213	7.3558	8.5850	1.1644 O
214 C214	8.2085	7.5065	0.7541 C
215 C215	8.9480	6.9389	1.9511 C
216 H216	8.9277	7.9211	0.0401 H
217 H217	7.6433	6.7293	0.2266 H
218 H218	9.5082	7.7264	2.4658 H
219 H219	9.6449	6.1553	1.6405 H
220 H220	8.2496	6.5164	2.6803 H
221 C221	3.7617	10.9514	-3.1129 C
222 C222	4.3140	10.7159	-4.3098 C
223 H223	3.1598	11.8376	-2.9432 H
224 H224	3.8980	10.2672	-2.2793 H
225 H225	4.1788	11.3971	-5.1407 H
226 C226	5.1348	9.5081	-4.5415 C
227 O227	5.3781	8.6520	-3.7081 O
228 O228	5.5593	9.5361	-5.8292 O
229 C229	6.3732	8.4263	-6.2348 C
230 C230	7.8302	8.6990	-5.9108 C
231 H231	6.2511	8.3189	-7.3176 H
232 H232	6.0293	7.4911	-5.7780 H
233 H233	8.1586	9.6348	-6.3750 H
234 H234	8.4662	7.8848	-6.2694 H
235 H235	7.9788	8.8094	-4.8320 H
236 C236	-4.3737	-1.8662	5.9592 C
237 C237	-4.1297	-0.6546	5.4441 C
238 H238	-5.3841	-2.1704	6.2103 H
239 H239	-3.5729	-2.5785	6.1409 H
240 H240	-4.9270	0.0557	5.2630 H
241 C241	-2.7525	-0.2395	5.1020 C
242 O242	-1.7542	-0.9241	5.2485 O
243 O243	-2.8102	1.0223	4.6085 O
244 C244	-1.5521	1.5894	4.2156 C
245 C245	-0.8814	2.2508	5.4049 C
246 H246	-1.7657	2.3411	3.4486 H
247 H247	-0.9013	0.8367	3.7557 H
248 H248	-1.5430	3.0002	5.8517 H
249 H249	0.0505	2.7374	5.1035 H
250 H250	-0.6562	1.5184	6.1865 H
251 C251	-8.6531	3.5999	1.8802 C
252 C252	-9.1697	2.8355	0.9099 C
253 H253	-9.2593	3.9131	2.7234 H
254 H254	-7.6173	3.9288	1.8542 H
255 H255	-10.2016	2.5076	0.9350 H
256 C256	-8.3437	2.4085	-0.2397 C
257 O257	-7.1711	2.6965	-0.4093 O
258 O258	-9.1240	1.6550	-1.0537 O
259 C259	-8.4782	1.1461	-2.2296 C
260 C260	-8.5571	2.1634	-3.3524 C
261 H261	-9.0131	0.2358	-2.5197 H
262 H262	-7.4412	0.8575	-2.0222 H
263 H263	-9.5983	2.4400	-3.5482 H
264 H264	-8.1197	1.7620	-4.2709 H
265 H265	-8.0277	3.0838	-3.0866 H
266 C266	-1.7615	5.9842	8.9447 C
267 C267	-1.9775	6.0796	7.6267 C
268 H268	-1.6047	6.8719	9.5480 H
269 H269	-1.7365	5.0213	9.4486 H
270 H270	-2.0025	7.0385	7.1240 H
271 C271	-2.1911	4.8698	6.8040 C
272 O272	-2.1905	3.7247	7.2229 O
273 O273	-2.3796	5.2684	5.5215 O
274 C274	-2.6092	4.2146	4.5752 C
275 C275	-1.2879	3.6827	4.0527 C
276 H276	-3.1845	4.6460	3.7495 H
277 H277	-3.2200	3.4145	5.0092 H
278 H278	-0.6907	4.4929	3.6215 H
279 H279	-1.4527	2.9195	3.2869 H
280 H280	-0.6937	3.2443	4.8607 H
281 C281	-3.9804	3.8440	-3.8869 C
282 C282	-4.3981	4.8179	-4.7053 C
283 H283	-4.6860	3.1498	-3.4433 H
284 H284	-2.9286	3.7188	-3.6425 H
285 H285	-5.4458	4.9434	-4.9492 H
286 C286	-3.4365	5.7645	-5.3099 C
287 O287	-2.2304	5.7528	-5.1312 O
288 O288	-4.1378	6.6318	-6.0814 O
289 C289	-3.3564	7.6282	-6.7562 C
290 C290	-3.1538	8.8330	-5.8566 C
291 H291	-3.9180	7.9252	-7.6480 H
292 H292	-2.3993	7.2193	-7.1002 H
293 H293	-4.1181	9.2302	-5.5230 H
294 H294	-2.6097	9.6226	-6.3825 H
295 H295	-2.5927	8.5616	-4.9568 H
296 C296	3.0288	-3.6713	-1.1967 C
297 C297	2.5198	-4.7961	-0.6786 C
298 H298	4.0275	-3.6562	-1.6195 H
299 H299	2.4616	-2.7440	-1.2101 H
300 H300	3.0843	-5.7203	-0.6648 H
301 C301	1.1585	-4.8170	-0.1020 C
302 O302	0.4042	-3.8608	-0.0435 O
303 O303	0.9160	-6.0748	0.3434 O
304 C304	-0.3745	-6.2817	0.9353 C
305 C305	-0.3360	-5.9328	2.4113 C
306 H306	-0.6154	-7.3430	0.8144 H
307 H307	-1.1506	-5.7139	0.4092 H
308 H308	0.4425	-6.5087	2.9224 H
309 H309	-1.2991	-6.1431	2.8848 H
310 H310	-0.0978	-4.8746	2.5587 H
311 C311	-7.0841	0.0585	1.2644 C
312 C312	-8.2000	0.7816	1.4216 C
313 H313	-7.0400	-0.9743	1.5927 H
314 H314	-6.1931	0.4803	0.8061 H
315 H315	-9.0880	0.3622	1.8782 H
316 C316	-8.2603	2.1896	0.9743 C
317 O317	-7.3464	2.8001	0.4463 O
318 O318	-9.4984	2.6631	1.2612 O
319 C319	-9.7391	4.0273	0.8875 C
320 C320	-9.2938	4.9609	1.9973 C
321 H321	-10.8179	4.1304	0.7308 H
322 H322	-9.2512	4.2728	-0.0629 H
323 H323	-9.7906	4.7038	2.9386 H
324 H324	-9.5270	5.9997	1.7472 H
325 H325	-8.2165	4.8772	2.1726 H
326 C326	-5.3727	0.0979	-4.5053 C
327 C327	-5.9140	1.2449	-4.9347 C
328 H328	-5.5751	-0.8376	-5.0156 H
329 H329	-4.7182	0.0677	-3.6379 H
330 H330	-6.5663	1.2758	-5.7986 H
331 C331	-5.6386	2.5202	-4.2391 C
332 O332	-4.9288	2.6466	-3.2558 O
333 O333	-6.3150	3.5006	-4.8875 O
334 C334	-6.1578	4.8203	-4.3468 C
335 C335	-7.1743	5.0601	-3.2462 C
336 H336	-6.3306	5.5248	-5.1670 H
337 H337	-5.1345	4.9863	-3.9905 H
338 H338	-8.1903	4.8918	-3.6180 H
339 H339	-7.1018	6.0835	-2.8677 H
340 H340	-7.0214	4.3675	-2.4125 H
341 C341	-7.1236	8.1957	4.2236 C
342 C342	-5.9409	8.1902	3.5960 C
343 H343	-7.5845	9.1276	4.5328 H
344 H344	-7.6558	7.2733	4.4418 H
345 H345	-5.4100	9.1087	3.3784 H
346 C346	-5.3122	6.9201	3.1746 C
347 O347	-5.7840	5.8093	3.3490 O
348 O348	-4.1340	7.2200	2.5736 O
349 C349	-3.3832	6.0960	2.0921 C
350 C350	-2.5018	5.5430	3.1963 C
351 H351	-2.7583	6.4577	1.2690 H
352 H352	-4.0421	5.3230	1.6800 H
353 H353	-1.8494	6.3262	3.5961 H
354 H354	-1.8816	4.7230	2.8234 H
355 H355	-3.1044	5.1732	4.0319 H
356 C356	4.9649	1.1296	-1.6208 C
357 C357	5.4111	1.2724	-0.3664 C
358 H358	5.6213	0.7728	-2.4071 H
359 H359	3.9381	1.3650	-1.8893 H
360 H360	6.4338	1.0382	-0.0982 H
361 C361	4.5166	1.7589	0.7056 C
362 O362	3.3449	2.0636	0.5605 O
363 O363	5.2342	1.8045	1.8555 O
364 C364	4.5161	2.2540	3.0135 C
365 C365	4.5646	3.7677	3.1051 C
366 H366	5.0113	1.8167	3.8867 H
367 H367	3.4838	1.8854	3.0110 H
368 H368	5.6014	4.1197	3.1080 H
369 H369	4.0706	4.1171	4.0160 H
370 H370	4.0739	4.2294	2.2424 H
371 C371	-8.6240	5.5979	-1.0200 C
372 C372	-7.8153	4.8075	-0.3029 C
373 H373	-8.7245	5.4646	-2.0917 H
374 H374	-9.2014	6.3927	-0.5545 H
375 H375	-7.2396	4.0156	-0.7660 H
376 C376	-7.6779	4.9892	1.1580 C
377 O377	-8.2569	5.8339	1.8197 O
378 O378	-6.8007	4.0593	1.6107 O
379 C379	-6.5482	4.0852	3.0229 C
380 C380	-5.4336	5.0653	3.3379 C
381 H381	-6.2417	3.0744	3.3117 H
382 H382	-7.4586	4.3187	3.5869 H
383 H383	-4.5317	4.8179	2.7684 H
384 H384	-5.1931	5.0492	4.4047 H
385 H385	-5.7167	6.0851	3.0589 H
386 C386	2.5005	9.6142	-5.3440 C
387 C387	1.6294	9.0815	-6.2102 C
388 H388	2.3208	10.5890	-4.9036 H
389 H389	3.4088	9.0908	-5.0565 H
390 H390	0.7243	9.6024	-6.4971 H
391 C391	1.8740	7.7528	-6.8108 C
392 O392	2.8438	7.0478	-6.5889 O
393 O393	0.8380	7.4759	-7.6410 O
394 C394	0.9069	6.2100	-8.3128 C
395 C395	1.7005	6.3421	-9.5991 C
396 H396	-0.1217	5.9141	-8.5439 H
397 H397	1.3258	5.4346	-7.6611 H
398 H398	1.2690	7.1187	-10.2391 H
399 H399	1.7090	5.3964	-10.1484 H
400 H400	2.7346	6.6365	-9.3943 H
401 C401	-4.4984	-2.7023	6.0399 C
402 C402	-4.0570	-1.9410	5.0307 C
403 H403	-5.4706	-3.1807	5.9913 H
404 H404	-3.9010	-2.8640	6.9336 H
405 H405	-4.6516	-1.7793	4.1401 H
406 C406	-2.7318	-1.2885	5.0967 C
407 O407	-1.9509	-1.3740	6.0292 O
408 O408	-2.5566	-0.5886	3.9484 O
409 C409	-1.3091	0.1114	3.8366 C
410 C410	-1.4195	1.4837	4.4742 C
411 H411	-1.0970	0.2183	2.7678 H
412 H412	-0.4862	-0.4677	4.2714 H
413 H413	-2.2442	2.0495	4.0285 H
414 H414	-0.4921	2.0482	4.3424 H
415 H415	-1.6305	1.4035	5.5453 H
416 C416	-5.0236	-1.4115	-2.1847 C
417 C417	-6.3296	-1.1164	-2.1726 C
418 H418	-4.6851	-2.4391	-2.1077 H
419 H419	-4.2664	-0.6364	-2.2714 H
420 H420	-7.0846	-1.8881	-2.0861 H
421 C421	-6.7914	0.2842	-2.2774 C
422 O422	-6.0658	1.2588	-2.3789 O
423 O423	-8.1470	0.2781	-2.2358 O
424 C424	-8.7730	1.5656	-2.3313 C
425 C425	-8.8879	2.1955	-0.9558 C
426 H426	-9.7732	1.4049	-2.7470 H
427 H427	-8.2364	2.2197	-3.0282 H
428 H428	-9.4271	1.5313	-0.2725 H
429 H429	-9.4169	3.1512	-1.0099 H
430 H430	-7.8993	2.3677	-0.5187 H
431 C431	-9.1763	1.6767	2.5214 C
432 C432	-7.9774	2.2256	2.2888 C
433 H433	-9.3615	0.6312	2.2997 H
434 H434	-9.9963	2.2569	2.9369 H
435 H435	-7.1600	1.6482	1.8748 H
436 C436	-7.7246	3.6507	2.5908 C
437 O437	-8.5413	4.4271	3.0566 O
438 O438	-6.4397	3.9243	2.2542 O
439 C439	-6.0150	5.2749	2.4870 C
440 C440	-6.3511	6.1436	1.2894 C
441 H441	-4.9297	5.2489	2.6297 H
442 H442	-6.4510	5.6771	3.4089 H
443 H443	-5.9077	5.7297	0.3777 H
444 H444	-5.9788	7.1619	1.4322 H
445 H445	-7.4326	6.1866	1.1263 H
446 C446	-0.1105	-0.4440	-5.2668 C
447 C447	1.1952	-0.4951	-4.9747 C
448 H448	-0.5356	-1.0892	-6.0280 H
449 H449	-0.7814	0.2408	-4.7543 H
450 H450	1.8642	-1.1770	-5.4850 H
451 C451	1.7751	0.3845	-3.9374 C
452 O452	1.1535	1.2020	-3.2800 O
453 O453	3.1024	0.1168	-3.8613 O
454 C454	3.8318	0.8829	-2.8919 C
455 C455	4.2889	2.1963	-3.4983 C
456 H456	4.7043	0.2871	-2.6042 H
457 H457	3.2396	1.0451	-1.9838 H
458 H458	4.8797	2.0173	-4.4026 H
459 H459	4.8962	2.7618	-2.7859 H
460 H460	3.4331	2.8117	-3.7936 H
461 C461	-5.9734	0.7109	7.9920 C
462 C462	-4.9376	0.8430	7.1538 C
463 H463	-6.2953	-0.2689	8.3278 H
464 H464	-6.5208	1.5750	8.3599 H
465 H465	-4.3918	-0.0174	6.7867 H
466 C466	-4.4985	2.1785	6.6957 C
467 O467	-5.0108	3.2368	7.0185 O
468 O468	-3.4426	2.0046	5.8626 O
469 C469	-2.8788	3.2080	5.3217 C
470 C470	-3.6136	3.6079	4.0559 C
471 H471	-1.8312	2.9929	5.0865 H
472 H472	-2.8828	4.0179	6.0604 H
473 H473	-3.5993	2.7897	3.3283 H
474 H474	-3.1539	4.4910	3.6032 H
475 H475	-4.6648	3.8296	4.2652 H
476 C476	5.3228	0.8767	-0.0950 C
477 C477	5.4050	0.6615	-1.4141 C
478 H478	6.2171	1.0209	0.5015 H
479 H479	4.3643	0.9134	0.4164 H
480 H480	6.3596	0.6246	-1.9243 H
481 C481	4.1862	0.4646	-2.2275 C
482 O482	3.0446	0.4771	-1.7993 O
483 O483	4.5726	0.2677	-3.5125 O
484 C484	3.5081	0.0625	-4.4524 C
485 C485	3.1303	-1.4060	-4.5036 C
486 H486	3.8802	0.3810	-5.4317 H
487 H487	2.6415	0.6915	-4.2175 H
488 H488	4.0053	-2.0201	-4.7405 H
489 H489	2.3602	-1.5821	-5.2599 H
490 H490	2.7534	-1.7488	-3.5348 H
491 C491	-1.3568	1.5863	4.0387 C
492 C492	-1.7995	0.4106	4.5020 C
493 H493	-1.0331	1.6916	3.0088 H
494 H494	-1.3081	2.4662	4.6750 H
495 H495	-1.8482	-0.4666	3.8687 H
496 C496	-2.2407	0.2666	5.9058 C
497 O497	-2.2439	1.1581	6.7376 O
498 O498	-2.6290	-1.0199	6.0885 O
499 C499	-3.0975	-1.3419	7.4059 C
500 C500	-1.9318	-1.7298	8.2962 C
501 H501	-3.7808	-2.1913	7.3037 H
502 H502	-3.6740	-0.5155	7.8376 H
503 H503	-1.3674	-2.5565	7.8524 H
504 H504	-2.2841	-2.0340	9.2859 H
505 H505	-1.2335	-0.8952	8.4152 H
506 C506	1.6853	2.6997	2.6375 C
507 C507	2.0090	3.6493	3.5243 C
508 H508	0.7889	2.7861	2.0329 H
509 H509	2.3058	1.8185	2.4961 H
510 H510	1.3912	4.5274	3.6659 H
511 C511	3.2308	3.5318	4.3487 C
512 O512	4.0228	2.6058	4.3053 O
513 O513	3.2984	4.6254	5.1479 O
514 C514	4.4353	4.6820	6.0213 C
515 C515	4.1396	3.9461	7.3147 C
516 H516	4.6227	5.7396	6.2343 H
517 H517	5.3341	4.2883	5.5325 H
518 H518	3.2409	4.3517	7.7909 H
519 H519	4.9782	4.0336	8.0111 H
520 H520	3.9496	2.8844	7.1281 H
521 C521	-5.0541	5.7728	2.3769 C
522 C522	-6.3842	5.7570	2.5305 C
523 H523	-4.5279	6.7014	2.1837 H
524 H524	-4.4635	4.8624	2.4405 H
525 H525	-6.9733	6.6636	2.4671 H
526 C526	-7.1019	4.4914	2.7937 C
527 O527	-6.5803	3.3936	2.8909 O
528 O528	-8.4231	4.7784	2.9001 O
529 C529	-9.2788	3.6572	3.1632 C
530 C530	-9.6862	2.9922	1.8618 C
531 H531	-10.1674	4.0454	3.6719 H
532 H532	-8.8032	2.9438	3.8462 H
533 H533	-10.1605	3.7169	1.1918 H
534 H534	-10.3859	2.1725	2.0475 H
535 H535	-8.8138	2.5941	1.3340 H
536 C536	-4.4984	4.7801	7.3056 C
537 C537	-4.2565	3.9523	6.2814 C
538 H538	-5.4232	5.3445	7.3577 H
539 H539	-3.7811	4.9120	8.1117 H
540 H540	-4.9705	3.8204	5.4778 H
541 C541	-2.9959	3.1829	6.2099 C
542 O542	-2.0980	3.2249	7.0338 O
543 O543	-3.0269	2.4406	5.0753 O
544 C544	-1.8739	1.6187	4.8440 C
545 C545	-0.8049	2.4094	4.1132 C
546 H546	-2.1996	0.7784	4.2220 H
547 H547	-1.4905	1.1963	5.7800 H
548 H548	-1.2027	2.8230	3.1807 H
549 H549	0.0550	1.7753	3.8797 H
550 H550	-0.4613	3.2559	4.7161 H
551 C551	-2.1598	-3.7020	2.9547 C
552 C552	-3.1650	-2.8322	3.1155 C
553 H553	-2.3577	-4.7536	2.7772 H
554 H554	-1.1210	-3.3845	2.9966 H
555 H555	-4.2002	-3.1477	3.0740 H
556 C556	-2.8957	-1.3987	3.3576 C
557 O557	-1.7885	-0.8933	3.4320 O
558 O558	-4.0897	-0.7678	3.4825 O
559 C559	-4.0190	0.6457	3.7186 C
560 C560	-3.8922	0.9228	5.2049 C
561 H561	-4.9507	1.0800	3.3416 H
562 H562	-3.1989	1.1042	3.1539 H
563 H563	-4.7186	0.4600	5.7542 H
564 H564	-3.8969	1.9988	5.4006 H
565 H565	-2.9662	0.4988	5.6060 H
566 C566	-4.0047	-0.1533	8.5953 C
567 C567	-3.2254	-0.2350	7.5095 C
568 H568	-4.4290	-1.0453	9.0433 H
569 H569	-4.2354	0.8024	9.0590 H
570 H570	-2.9952	-1.1867	7.0468 H
571 C571	-2.6470	0.9808	6.8983 C
572 O572	-2.8149	2.1192	7.3014 O
573 O573	-1.9133	0.5962	5.8245 O
574 C574	-1.2681	1.6574	5.1060 C
575 C575	-2.2087	2.2314	4.0630 C
576 H576	-0.3924	1.2232	4.6124 H
577 H577	-0.9014	2.4347	5.7863 H
578 H578	-2.5646	1.4435	3.3911 H
579 H579	-1.7068	3.0012	3.4700 H
580 H580	-3.0933	2.6733	4.5325 H
581 C581	-2.9461	9.1628	-3.0814 C
582 C582	-2.3112	8.1578	-3.6976 C
583 H583	-3.4990	8.9917	-2.1641 H
584 H584	-2.9280	10.1748	-3.4778 H
585 H585	-2.3290	7.1492	-3.3034 H
586 C586	-1.5576	8.3906	-4.9482 C
587 O587	-1.4466	9.4654	-5.5133 O
588 O588	-1.0284	7.2051	-5.3403 O
589 C589	-0.2522	7.2446	-6.5463 C
590 C590	-1.1522	7.0661	-7.7547 C
591 H591	0.4622	6.4164	-6.4942 H
592 H592	0.3321	8.1695	-6.6148 H
593 H593	-1.7274	6.1381	-7.6719 H
594 H594	-0.5633	7.0356	-8.6757 H
595 H595	-1.8760	7.8838	-7.8296 H
596 C596	-6.5641	-1.9778	-3.1942 C
597 C597	-6.5217	-2.4193	-1.9308 C
598 H598	-7.4933	-1.9825	-3.7537 H
599 H599	-5.6754	-1.6035	-3.6958 H
600 H600	-7.4066	-2.7925	-1.4303 H
601 C601	-5.2552	-2.4133	-1.1678 C
602 O602	-4.1796	-2.0266	-1.5923 O
603 O603	-5.5123	-2.9130	0.0665 O
604 C604	-4.3861	-2.9767	0.9532 C
605 C605	-3.6339	-4.2789	0.7520 C
606 H606	-4.7799	-2.9334	1.9740 H
607 H607	-3.7279	-2.1096	0.8254 H
608 H608	-4.3042	-5.1345	0.8844 H
609 H609	-2.8082	-4.3637	1.4641 H
610 H610	-3.2286	-4.3458	-0.2626 H
611 C611	-1.9902	2.3210	-5.2343 C
612 C612	-1.2646	3.4307	-5.4211 C
613 H613	-1.5939	1.4869	-4.6654 H
614 H614	-2.9922	2.2212	-5.6439 H
615 H615	-0.2662	3.5308	-5.0135 H
616 C616	-1.8044	4.5679	-6.1967 C
617 O617	-2.9066	4.6050	-6.7169 O
618 O618	-0.8582	5.5391	-6.2217 O
619 C619	-1.2166	6.7315	-6.9347 C
620 C620	-0.8815	6.5824	-8.4069 C
621 H621	-0.6296	7.5498	-6.5049 H
622 H622	-2.2736	6.9821	-6.7875 H
623 H623	0.1769	6.3338	-8.5370 H
624 H624	-1.0962	7.5075	-8.9491 H
625 H625	-1.4576	5.7697	-8.8606 H
626 C626	-4.7345	10.0185	1.4989 C
627 C627	-3.8619	9.0261	1.2831 C
628 H628	-4.9697	10.7319	0.7165 H
629 H629	-5.2314	10.1401	2.4581 H
630 H630	-3.3664	8.9044	0.3278 H
631 C631	-3.5410	8.0535	2.3494 C
632 O632	-4.0141	8.0595	3.4732 O
633 O633	-2.6363	7.1749	1.8506 O
634 C634	-2.2107	6.1465	2.7562 C
635 C635	-1.0434	6.6356	3.5930 C
636 H636	-1.8944	5.2940	2.1463 H
637 H637	-3.0388	5.8017	3.3862 H
638 H638	-0.2247	6.9748	2.9498 H
639 H639	-0.6733	5.8395	4.2452 H
640 H640	-1.3351	7.4886	4.2138 H
641 C641	-2.6141	6.3785	2.4751 C
642 C642	-3.8840	6.4171	2.0522 C
643 H643	-1.8899	5.7249	2.0009 H
644 H644	-2.2709	6.9964	3.3010 H
645 H645	-4.2267	5.8018	1.2295 H
646 C646	-4.8715	7.3078	2.6984 C
647 O647	-4.6391	8.0559	3.6328 O
648 O648	-6.0603	7.1344	2.0693 O
649 C649	-7.1440	7.9321	2.5672 C
650 C650	-7.8278	7.2246	3.7221 C
651 H651	-7.8528	8.0595	1.7424 H
652 H652	-6.8031	8.9332	2.8557 H
653 H653	-8.1635	6.2277	3.4178 H
654 H654	-8.6920	7.7970	4.0706 H
655 H655	-7.1389	7.0862	4.5614 H
656 C656	0.4550	-1.6735	-8.0015 C
657 C657	0.7296	-1.1606	-6.7955 C
658 H658	1.2519	-1.9944	-8.6636 H
659 H659	-0.5677	-1.7837	-8.3530 H
660 H660	1.7483	-1.0504	-6.4446 H
661 C661	-0.3564	-0.7228	-5.8927 C
662 O662	-1.5479	-0.7816	-6.1448 O
663 O663	0.2140	-0.2499	-4.7568 O
664 C664	-0.7009	0.2183	-3.7556 C
665 C665	-1.0484	1.6742	-4.0033 C
666 H666	-0.1954	0.1200	-2.7893 H
667 H667	-1.6002	-0.4070	-3.7131 H
668 H668	-0.1405	2.2851	-4.0415 H
669 H669	-1.6989	2.0576	-3.2121 H
670 H670	-1.5568	1.7988	-4.9646 H
671 C671	0.4931	2.5231	-9.1042 C
672 C672	0.1794	2.8310	-7.8395 C
673 H673	0.6947	3.3015	-9.8322 H
674 H674	0.5553	1.4910	-9.4395 H
675 H675	0.1172	3.8591	-7.5047 H
676 C676	-0.0957	1.7702	-6.8469 C
677 O677	-0.0665	0.5720	-7.0710 O
678 O678	-0.3843	2.3719	-5.6662 O
679 C679	-0.6751	1.4849	-4.5766 C
680 C680	-2.1484	1.1224	-4.5750 C
681 H681	-0.4268	2.0196	-3.6539 H
682 H682	-0.0423	0.5905	-4.6102 H
683 H683	-2.7665	2.0256	-4.5398 H
684 H684	-2.3922	0.4939	-3.7139 H
685 H685	-2.4218	0.5849	-5.4885 H
686 C686	3.2821	3.2353	-4.0701 C
687 C687	2.5510	2.5341	-4.9458 C
688 H688	4.0319	3.9410	-4.4112 H
689 H689	3.1487	3.1205	-2.9974 H
690 H690	2.6834	2.6478	-6.0146 H
691 C691	1.5290	1.5719	-4.4812 C
692 O692	1.2655	1.3334	-3.3149 O
693 O693	0.9561	1.0144	-5.5768 O
694 C694	-0.0728	0.0502	-5.3118 C
695 C695	0.5359	-1.3263	-5.1205 C
696 H696	-0.7353	0.0415	-6.1836 H
697 H697	-0.6814	0.3429	-4.4484 H
698 H698	1.1389	-1.6045	-5.9911 H
699 H699	-0.2445	-2.0789	-4.9765 H
700 H700	1.2026	-1.3439	-4.2526 H
701 C701	8.4668	2.5175	-0.8628 C
702 C702	7.3093	3.0270	-0.4227 C
703 H703	8.9391	2.9040	-1.7594 H
704 H704	8.9663	1.7061	-0.3395 H
705 H705	6.8110	3.8352	-0.9436 H
706 C706	6.6651	2.5001	0.7994 C
707 O707	7.1012	1.5955	1.4909 O
708 O708	5.5190	3.1976	0.9975 O
709 C709	4.7589	2.8198	2.1542 C
710 C710	3.8216	1.6760	1.8146 C
711 H711	4.1756	3.6966	2.4542 H
712 H712	5.4131	2.5654	2.9962 H
713 H713	3.1745	1.9460	0.9736 H
714 H714	3.1955	1.4195	2.6738 H
715 H715	4.3818	0.7856	1.5123 H
716 C716	-2.6423	13.1279	-1.9673 C
717 C717	-2.2646	11.9354	-2.4450 C
718 H718	-3.5248	13.6270	-2.3529 H
719 H719	-2.0809	13.6303	-1.1837 H
720 H720	-2.8233	11.4343	-3.2258 H
721 C721	-1.0616	11.2548	-1.9198 C
722 O722	-0.3318	11.6905	-1.0455 O
723 O723	-0.9259	10.0807	-2.5848 O
724 C724	0.1982	9.2781	-2.1965 C
725 C725	1.4303	9.6872	-2.9817 C
726 H726	-0.0563	8.2383	-2.4270 H
727 H727	0.3745	9.3341	-1.1161 H
728 H728	1.2387	9.6245	-4.0579 H
729 H729	2.2787	9.0423	-2.7359 H
730 H730	1.7063	10.7245	-2.7673 H
731 C731	-10.6674	8.1487	2.8442 C
732 C732	-9.4646	8.3753	2.3014 C
733 H733	-11.1203	8.8718	3.5140 H
734 H734	-11.2245	7.2395	2.6327 H
735 H735	-8.9089	9.2808	2.5118 H
736 C736	-8.8469	7.3898	1.3886 C
737 O737	-9.3458	6.3275	1.0579 O
738 O738	-7.6436	7.8808	1.0011 O
739 C739	-6.8991	7.0491	0.0996 C
740 C740	-6.0662	6.0477	0.8776 C
741 H741	-6.2399	7.7091	-0.4739 H
742 H742	-7.5586	6.5495	-0.6193 H
743 H743	-5.4124	6.5620	1.5896 H
744 H744	-5.4499	5.4479	0.2020 H
745 H745	-6.7035	5.3744	1.4595 H
746 C746	-4.7320	1.7709	-7.5245 C
747 C747	-5.7417	1.3393	-6.7584 C
748 H748	-4.6642	1.4839	-8.5683 H
749 H749	-3.9536	2.4178	-7.1279 H
750 H750	-6.5175	0.6946	-7.1527 H
751 C751	-5.8344	1.7301	-5.3354 C
752 O752	-5.0407	2.4463	-4.7491 O
753 O753	-6.9448	1.1489	-4.8173 O
754 C754	-7.1975	1.4266	-3.4325 C
755 C755	-6.4572	0.4342	-2.5556 C
756 H756	-8.2763	1.3217	-3.2769 H
757 H757	-6.9350	2.4600	-3.1782 H
758 H758	-6.7311	-0.5923	-2.8207 H
759 H759	-6.6900	0.6003	-1.5000 H
760 H760	-5.3746	0.5203	-2.6924 H
@<TRIPOS>BOND
1 1 3 2
2 1 4 1
3 1 5 1
4 2 3 1
5 3 6 1
6 6 7 2
7 6 9 1
8 7 8 1
9 7 14 1
10 9 10 1
11 10 11 1
12 10 12 1
13 10 13 1
14 14 15 1
15 15 16 2
16 15 21 2
17 16 17 2
18 16 18 1
19 17 19 2
20 17 20 1
21 19 22 2
22 19 23 1
23 21 22 2
24 21 25 1
25 22 24 1
26 26 27 2
27 26 28 1
28 26 29 1
29 27 30 1
30 27 31 1
31 31 32 2
32 31 33 1
33 33 34 1
34 34 35 1
35 34 36 1
36 34 37 1
37 35 38 1
38 35 39 1
39 35 40 1
40 41 42 2
41 41 43 1
42 41 44 1
43 42 45 1
44 42 46 1
45 46 47 2
46 46 48 1
47 48 49 1
48 49 50 1
49 49 51 1
50 49 52 1
51 50 53 1
52 50 54 1
53 50 55 1
54 56 57 2
55 56 58 1
56 56 59 1
57 57 60 1
58 57 61 1
59 61 62 2
60 61 63 1
61 63 64 1
62 64 65 1
63 64 66 1
64 64 67 1
65 65 68 1
66 65 69 1
67 65 70 1
68 71 72 2
69 71 73 1
70 71 74 1
71 72 75 1
72 72 76 1
73 76 77 2
74 76 78 1
75 78 79 1
76 79 80 1
77 79 81 1
78 79 82 1
79 80 83 1
80 80 84 1
81 80 85 1
82 86 87 2
83 86 88 1
84 86 89 1
85 87 90 1
86 87 91 1
87 91 92 2
88 91 93 1
89 93 94 1
90 94 95 1
91 94 96 1
92 94 97 1
93 95 98 1
94 95 99 1
95 95 100 1
96 101 102 2
97 101 103 1
98 101 104 1
99 102 105 1
100 102 106 1
101 106 107 2
102 106 108 1
103 108 109 1
104 109 110 1
105 109 111 1
106 109 112 1
107 110 113 1
108 110 114 1
109 110 115 1
110 116 117 2
111 116 118 1
112 116 119 1
113 117 120 1
114 117 121 1
115 121 122 2
116 121 123 1
117 123 124 1
118 124 125 1
119 124 126 1
120 124 127 1
121 125 128 1
122 125 129 1
123 125 130 1
124 131 132 2
125 131 133 1
126 131 134 1
127 132 135 1
128 132 136 1
129 136 137 2
130 136 138 1
131 138 139 1
132 139 140 1
133 139 141 1
134 139 142 1
135 140 143 1
136 140 144 1
137 140 145 1
138 146 147 2
139 146 148 1
140 146 149 1
141 147 150 1
142 147 151 1
143 151 152 2
144 151 153 1
145 153 154 1
146 154 155 1
147 154 156 1
148 154 157 1
149 155 158 1
150 155 159 1
151 155 160 1
152 161 162 2
153 161 163 1
154 161 164 1
155 162 165 1
156 162 166 1
157 166 167 2
158 166 168 1
159 168 169 1
160 169 170 1
161 169 171 1
162 169 172 1
163 170 173 1
164 170 174 1
165 170 175 1
166 176 177 2
167 176 178 1
168 176 179 1
169 177 180 1
170 177 181 1
171 181 182 2
172 181 183 1
173 183 184 1
174 184 185 1
175 184 186 1
176 184 187 1
177 185 188 1
178 185 189 1
179 185 190 1
180 191 192 2
181 191 193 1
182 191 194 1
183 192 195 1
184 192 196 1
185 196 197 2
186 196 198 1
187 198 199 1
188 199 200 1
189 199 201 1
190 199 202 1
191 200 203 1
192 200 204 1
193 200 205 1
194 206 207 2
195 206 208 1
196 206 209 1
197 207 210 1
198 207 211 1
199 211 212 2
200 211 213 1
201 213 214 1
202 214 215 1
203 214 216 1
204 214 217 1
205 215 218 1
206 215 219 1
207 215 220 1
208 221 222 2
209 221 223 1
210 221 224 1
211 222 225 1
212 222 226 1
213 226 227 2
214 226 228 1
215 228 229 1
216 229 230 1
217 229 231 1
218 229 232 1
219 230 233 1
220 230 234 1
221 230 235 1
222 236 237 2
223 236 238 1
224 236 239 1
225 237 240 1
226 237 241 1
227 241 242 2
228 241 243 1
229 243 244 1
230 244 245 1
231 244 246 1
232 244 247 1
233 245 248 1
234 245 249 1
235 245 250 1
236 251 252 2
237 251 253 1
238 251 254 1
239 252 255 1
240 252 256 1
241 256 257 2
242 256 258 1
243 258 259 1
244 259 260 1
245 259 261 1
246 259 262 1
247 260 263 1
248 260 264 1
249 260 265 1
250 266 267 2
251 266 268 1
252 266 269 1
253 267 270 1
254 267 271 1
255 271 272 2
256 271 273 1
257 273 274 1
258 274 275 1
259 274 276 1
260 274 277 1
261 275 278 1
262 275 279 1
263 275 280 1
264 281 282 2
265 281 283 1
266 281 284 1
267 282 285 1
268 282 286 1
269 286 287 2
270 286 288 1
271 288 289 1
272 289 290 1
273 289 291 1
274 289 292 1
275 290 293 1
276 290 294 1
277 290 295 1
278 296 297 2
279 296 298 1
280 296 299 1
281 297 300 1
282 297 301 1
283 301 302 2
284 301 303 1
285 303 304 1
286 304 305 1
287 304 306 1
288 304 307 1
289 305 308 1
290 305 309 1
291 305 310 1
292 311 312 2
293 311 313 1
294 311 314 1
295 312 315 1
296 312 316 1
297 316 317 2
298 316 318 1
299 318 319 1
300 319 320 1
301 319 321 1
302 319 322 1
303 320 323 1
304 320 324 1
305 320 325 1
306 326 327 2
307 326 328 1
308 326 329 1
309 327 330 1
310 327 331 1
311 331 332 2
312 331 333 1
313 333 334 1
314 334 335 1
315 334 336 1
316 334 337 1
317 335 338 1
318 335 339 1
319 335 340 1
320 341 342 2
321 341 343 1
322 341 344 1
323 342 345 1
324 342 346 1
325 346 347 2
326 346 348 1
327 348 349 1
328 349 350 1
329 349 351 1
330 349 352 1
331 350 353 1
332 350 354 1
333 350 355 1
334 356 357 2
335 356 358 1
336 356 359 1
337 357 360 1
338 357 361 1
339 361 362 2
340 361 363 1
341 363 364 1
342 364 365 1
343 364 366 1
344 364 367 1
345 365 368 1
346 365 369 1
347 365 370 1
348 371 372 2
349 371 373 1
350 371 374 1
351 372 375 1
352 372 376 1
353 376 377 2
354 376 378 1
355 378 379 1
356 379 380 1
357 379 381 1
358 379 382 1
359 380 383 1
360 380 384 1
361 380 385 1
362 386 387 2
363 386 388 1
364 386 389 1
365 387 390 1
366 387 391 1
367 391 392 2
368 391 393 1
369 393 394 1
370 394 395 1
371 394 396 1
372 394 397 1
373 395 398 1
374 395 399 1
375 395 400 1
376 401 402 2
377 401 403 1
378 401 404 1
379 402 405 1
380 402 406 1
381 406 407 2
382 406 408 1
383 408 409 1
384 409 410 1
385 409 411 1
386 409 412 1
387 410 413 1
388 410 414 1
389 410 415 1
390 416 417 2
391 416 418 1
392 416 419 1
393 417 420 1
394 417 421 1
395 421 422 2
396 421 423 1
397 423 424 1
398 424 425 1
399 424 426 1
400 424 427 1
401 425 428 1
402 425 429 1
403 425 430 1
404 431 432 2
405 431 433 1
406 431 434 1
407 432 435 1
408 432 436 1
409 436 437 2
410 436 438 1
411 438 439 1
412 439 440 1
413 439 441 1
414 439 442 1
415 440 443 1
416 440 444 1
417 440 445 1
418 446 447 2
419 446 448 1
420 446 449 1
421 447 450 1
422 447 451 1
423 451 452 2
424 451 453 1
425 453 454 1
426 454 455 1
427 454 456 1
428 454 457 1
429 455 458 1
430 455 459 1
431 455 460 1
432 461 462 2
433 461 463 1
434 461 464 1
435 462 465 1
436 462 466 1
437 466 467 2
438 466 468 1
439 468 469 1
440 469 470 1
441 469 471 1
442 469 472 1
443 470 473 1
444 470 474 1
445 470 475 1
446 476 477 2
447 476 478 1
448 476 479 1
449 477 480 1
450 477 481 1
451 481 482 2
452 481 483 1
453 483 484 1
454 484 485 1
455 484 486 1
456 484 487 1
457 485 488 1
458 485 489 1
459 485 490 1
460 491 492 2
461 491 493 1
462 491 494 1
463 492 495 1
464 492 496 1
465 496 497 2
466 496 498 1
467 498 499 1
468 499 500 1
469 499 501 1
470 499 502 1
471 500 503 1
472 500 504 1
473 500 505 1
474 506 507 2
475 506 508 1
476 506 509 1
477 507 510 1
478 507 511 1
479 511 512 2
480 511 513 1
481 513 514 1
482 514 515 1
483 514 516 1
484 514 517 1
485 515 518 1
486 515 519 1
487 515 520 1
488 521 522 2
489 521 523 1
490 521 524 1
491 522 525 1
492 522 526 1
493 526 527 2
494 526 528 1
495 528 529 1
496 529 530 1
497 529 531 1
498 529 532 1
499 530 533 1
500 530 534 1
501 530 535 1
502 536 537 2
503 536 538 1
504 536 539 1
505 537 540 1
506 537 541 1
507 541 542 2
508 541 543 1
509 543 544 1
510 544 545 1
511 544 546 1
512 544 547 1
513 545 548 1
514 545 549 1
515 545 550 1
516 551 552 2
517 551 553 1
518 551 554 1
519 552 555 1
520 552 556 1
521 556 557 2
522 556 558 1
523 558 559 1
524 559 560 1
525 559 561 1
526 559 562 1
527 560 563 1
528 560 564 1
529 560 565 1
530 566 567 2
531 566 568 1
532 566 569 1
533 567 570 1
534 567 571 1
535 571 572 2
536 571 573 1
537 573 574 1
538 574 575 1
539 574 576 1
540 574 577 1
541 575 578 1
542 575 579 1
543 575 580 1
544 581 582 2
545 581 583 1
546 581 584 1
547 582 585 1
548 582 586 1
549 586 587 2
550 586 588 1
551 588 589 1
552 589 590 1
553 589 591 1
554 589 592 1
555 590 593 1
556 590 594 1
557 590 595 1
558 596 597 2
559 596 598 1
560 596 599 1
561 597 600 1
562 597 601 1
563 601 602 2
564 601 603 1
565 603 604 1
566 604 605 1
567 604 606 1
568 604 607 1
569 605 608 1
570 605 609 1
571 605 610 1
572 611 612 2
573 611 613 1
574 611 614 1
575 612 615 1
576 612 616 1
577 616 617 2
578 616 618 1
579 618 619 1
580 619 620 1
581 619 621 1
582 619 622 1
583 620 623 1
584 620 624 1
585 620 625 1
586 626 627 2
587 626 628 1
588 626 629 1
589 627 630 1
590 627 631 1
591 631 632 2
592 631 633 1
593 633 634 1
594 634 635 1
595 634 636 1
596 634 637 1
597 635 638 1
598 635 639 1
599 635 640 1
600 641 642 2
601 641 643 1
602 641 644 1
603 642 645 1
604 642 646 1
605 646 647 2
606 646 648 1
607 648 649 1
608 649 650 1
609 649 651 1
610 649 652 1
611 650 653 1
612 650 654 1
613 650 655 1
614 656 657 2
615 656 658 1
616 656 659 1
617 657 660 1
618 657 661 1
619 661 662 2
620 661 663 1
621 663 664 1
622 664 665 1
623 664 666 1
624 664 667 1
625 665 668 1
626 665 669 1
627 665 670 1
628 671 672 2
629 671 673 1
630 671 674 1
631 672 675 1
632 672 676 1
633 676 677 2
634 676 678 1
635 678 679 1
636 679 680 1
637 679 681 1
638 679 682 1
639 680 683 1
640 680 684 1
641 680 685 1
642 686 687 2
643 686 688 1
644 686 689 1
645 687 690 1
646 687 691 1
647 691 692 2
648 691 693 1
649 693 694 1
650 694 695 1
651 694 696 1
652 694 697 1
653 695 698 1
654 695 699 1
655 695 700 1
656 701 702 2
657 701 703 1
658 701 704 1
659 702 705 1
660 702 706 1
661 706 707 2
662 706 708 1
663 708 709 1
664 709 710 1
665 709 711 1
666 709 712 1
667 710 713 1
668 710 714 1
669 710 715 1
670 716 717 2
671 716 718 1
672 716 719 1
673 717 720 1
674 717 721 1
675 721 722 2
676 721 723 1
677 723 724 1
678 724 725 1
679 724 726 1
680 724 727 1
681 725 728 1
682 725 729 1
683 725 730 1
684 731 732 2
685 731 733 1
686 731 734 1
687 732 735 1
688 732 736 1
689 736 737 2
690 736 738 1
691 738 739 1
692 739 740 1
693 739 741 1
694 739 742 1
695 740 743 1
696 740 744 1
697 740 745 1
698 746 747 2
699 746 748 1
700 746 749 1
701 747 750 1
702 747 751 1
703 751 752 2
704 751 753 1
705 753 754 1
706 754 755 1
707 754 756 1
708 754 757 1
709 755 758 1
710 755 759 1
711 755 760 1
