@<TRIPOS>MOLECULE
Molecule Name
59 45
SMALL
NO_CHARGES

@<TRIPOS>ATOM
1 C1	0.0000	0.0000	0.0000 C
2 H2	-1.0835	0.0000	0.0000 H
3 C3	0.7457	1.1053	0.0000 C
4 H4	0.2726	2.0824	0.0000 H
5 H5	1.8291	1.0747	-0.0000 H
6 O6	0.5011	-1.2693	0.0000 O
7 H7	1.4727	-1.2210	-0.0000 H
8 C8	5.2031	-0.6479	0.6925 C
9 H9	5.6630	-1.4902	0.1514 H
10 H10	5.8798	0.1872	0.9343 H
11 O11	4.0189	-0.6404	1.0044 O
12 C12	1.4966	-1.0056	-3.5616 C
13 H13	1.8566	-1.3021	-4.5597 H
14 H14	0.4020	-0.9540	-3.4476 H
15 O15	2.2620	-0.7504	-2.6403 O
16 C16	5.1897	1.3006	1.0562 C
17 H17	4.8949	2.3588	0.9721 H
18 H18	6.2161	1.1207	1.4140 H
19 O19	4.4276	0.3855	0.7709 O
20 C20	1.4894	-4.2717	-0.2139 C
21 H21	1.5944	-4.7284	-1.2110 H
22 H22	0.4560	-4.0644	0.1069 H
23 O23	2.4567	-4.0119	0.4908 O
24 C24	-0.0560	-4.5602	-0.8537 C
25 H25	0.1960	-4.0469	0.0880 H
26 H26	-1.1183	-4.8222	-0.9821 H
27 O27	0.7885	-4.8221	-1.7011 O
28 C28	0.4249	-4.0611	-1.9655 C
29 H29	0.0156	-3.8522	-0.9642 H
30 H30	1.5111	-3.9131	-2.0748 H
31 O31	-0.2805	-4.4329	-2.8950 O
32 C32	0.5453	-2.1626	-2.7271 C
33 H33	-0.3687	-2.7705	-2.6322 H
34 H34	1.4772	-2.6526	-2.4027 H
35 O35	0.5266	-1.0188	-3.1641 O
36 C36	0.9287	-4.6155	1.4804 C
37 H37	-0.1457	-4.4033	1.6003 H
38 H38	1.5021	-3.8603	0.9195 H
39 O39	1.4506	-5.6236	1.9398 O
40 C40	2.3661	4.1519	-2.3391 C
41 H41	3.3072	3.6399	-2.5957 H
42 H42	1.9279	4.7693	-3.1395 H
43 O43	1.8421	4.0422	-1.2377 O
44 C44	1.8798	-3.1622	3.2729 C
45 H45	0.8671	-3.0390	3.6889 H
46 H46	2.0112	-2.8198	2.2340 H
47 O47	2.7981	-3.6473	3.9219 O
48 C48	-0.4594	-0.1585	3.3619 C
49 H49	-0.8872	-0.8811	2.6488 H
50 H50	-0.4094	0.8840	3.0091 H
51 O51	-0.0656	-0.4917	4.4726 O
52 C52	-2.9071	0.1794	-2.3455 C
53 H53	-2.7179	-0.7257	-2.9444 H
54 H54	-2.4746	1.1112	-2.7436 H
55 O55	-3.5548	0.1517	-1.3065 O
56 C56	1.9469	4.9733	-0.8518 C
57 H57	1.2212	5.6390	-1.3457 H
58 H58	2.8836	4.7984	-1.4047 H
59 O59	1.7270	4.4618	0.2390 O
@<TRIPOS>BOND
1 1 2 1
2 1 3 2
3 1 6 1
4 3 4 1
5 3 5 1
6 6 7 1
7 8 9 1
8 8 10 1
9 8 11 2
10 12 13 1
11 12 14 1
12 12 15 2
13 16 17 1
14 16 18 1
15 16 19 2
16 20 21 1
17 20 22 1
18 20 23 2
19 24 25 1
20 24 26 1
21 24 27 2
22 28 29 1
23 28 30 1
24 28 31 2
25 32 33 1
26 32 34 1
27 32 35 2
28 36 37 1
29 36 38 1
30 36 39 2
31 40 41 1
32 40 42 1
33 40 43 2
34 44 45 1
35 44 46 1
36 44 47 2
37 48 49 1
38 48 50 1
39 48 51 2
40 52 53 1
41 52 54 1
42 52 55 2
43 56 57 1
44 56 58 1
45 56 59 2
