@<TRIPOS>MOLECULE
Molecule Name
59 45
SMALL
NO_CHARGES

@<TRIPOS>ATOM
1 C1	0.0000	0.0000	0.0000 C
2 H2	-1.0823	0.0000	0.0000 H
3 C3	0.7402	1.1067	0.0000 C
4 H4	0.2807	2.0884	0.0000 H
5 H5	1.8236	1.0483	-0.0000 H
6 O6	0.5659	-1.2419	-0.0000 O
7 H7	-0.1492	-1.9023	-0.0000 H
8 C8	-0.0696	-2.7400	3.0165 C
9 H9	0.1468	-1.6695	2.8718 H
10 H10	0.4508	-3.2196	3.8609 H
11 O11	-0.8372	-3.3556	2.2875 O
12 C12	2.4695	-3.5570	-1.5005 C
13 H13	2.5606	-2.4599	-1.5407 H
14 H14	3.4134	-4.1070	-1.3585 H
15 O15	1.3909	-4.1272	-1.6066 O
16 C16	-1.4762	-5.5511	-0.6764 C
17 H17	-2.4694	-5.8303	-1.0628 H
18 H18	-0.9344	-6.3467	-0.1403 H
19 O19	-1.0057	-4.4313	-0.8323 O
20 C20	-0.2728	-3.4943	-2.6489 C
21 H21	0.7945	-3.6222	-2.8900 H
22 H22	-0.8392	-2.8419	-3.3325 H
23 O23	-0.7948	-4.0408	-1.6853 O
24 C24	-1.6931	0.5880	-3.1581 C
25 H25	-0.6855	0.4678	-2.7291 H
26 H26	-1.7620	0.4636	-4.2506 H
27 O27	-2.6712	0.8430	-2.4667 O
28 C28	-4.9006	0.5903	0.8903 C
29 H29	-5.5810	1.4566	0.8725 H
30 H30	-5.2958	-0.3138	1.3802 H
31 O31	-3.7799	0.6298	0.3983 O
32 C32	3.7137	-1.1253	2.0284 C
33 H33	3.1756	-1.8745	1.4260 H
34 H34	3.8193	-0.1310	1.5658 H
35 O35	4.1644	-1.3806	3.1380 O
36 C36	-3.4003	1.4692	-2.7003 C
37 H37	-3.0886	2.4729	-3.0306 H
38 H38	-3.9570	0.8763	-3.4435 H
39 O39	-3.1449	1.0411	-1.5817 O
40 C40	1.0693	-1.8420	-3.3291 C
41 H41	2.0159	-1.2919	-3.4512 H
42 H42	0.2767	-1.3075	-2.7815 H
43 O43	0.9087	-2.9722	-3.7725 O
44 C44	1.6418	-0.2700	3.5394 C
45 H45	0.6546	0.0436	3.9145 H
46 H46	1.6724	-0.5765	2.4816 H
47 O47	2.6387	-0.2776	4.2507 O
48 C48	-1.2993	1.0621	3.2879 C
49 H49	-0.4984	1.2963	2.5686 H
50 H50	-0.9658	0.6377	4.2484 H
51 O51	-2.4815	1.2602	3.0367 O
52 C52	3.0005	-3.8586	-0.7461 C
53 H53	3.8199	-4.4191	-0.2685 H
54 H54	3.2623	-3.3410	-1.6828 H
55 O55	1.8740	-3.8137	-0.2678 O
56 C56	-3.8019	-1.7592	0.7161 C
57 H57	-3.0391	-2.3635	0.1998 H
58 H58	-4.6838	-2.3135	1.0750 H
59 O59	-3.6779	-0.5519	0.8802 O
@<TRIPOS>BOND
1 1 2 1
2 1 3 2
3 1 6 1
4 3 4 1
5 3 5 1
6 6 7 1
7 8 9 1
8 8 10 1
9 8 11 2
10 12 13 1
11 12 14 1
12 12 15 2
13 16 17 1
14 16 18 1
15 16 19 2
16 20 21 1
17 20 22 1
18 20 23 2
19 24 25 1
20 24 26 1
21 24 27 2
22 28 29 1
23 28 30 1
24 28 31 2
25 32 33 1
26 32 34 1
27 32 35 2
28 36 37 1
29 36 38 1
30 36 39 2
31 40 41 1
32 40 42 1
33 40 43 2
34 44 45 1
35 44 46 1
36 44 47 2
37 48 49 1
38 48 50 1
39 48 51 2
40 52 53 1
41 52 54 1
42 52 55 2
43 56 57 1
44 56 58 1
45 56 59 2
