# Title
# Created by GaussView 5.0.8
#

#
#

@<TRIPOS>MOLECULE
Molecule Name
407 306
SMALL
NO_CHARGES


@<TRIPOS>ATOM
1 C1     0.0000     0.0000     0.0000 C
2 H2    -1.0835     0.0000     0.0000 H
3 C3     0.7457     1.1053     0.0000 C
4 H4     0.2726     2.0824     0.0000 H
5 H5     1.8291     1.0747    -0.0000 H
6 O6     0.5011    -1.2693     0.0000 O
7 H7     1.4727    -1.2210    -0.0000 H
8 C8     0.3575    -4.4035     2.0122 C
9 H9    -0.5296    -4.7514     2.5651 H
10 H10     0.1751    -4.0870     0.9728 H
11 O11     1.4718    -4.3709     2.5190 O
12 C12     0.1954     3.1651    -3.8130 C
13 H13     1.2823     3.1661    -3.9934 H
14 H14    -0.4007     3.7849    -4.5016 H
15 O15    -0.3158     2.5184    -2.9074 O
16 C16    -2.5658     2.2005     2.9319 C
17 H17    -1.8661     2.0228     2.0996 H
18 H18    -2.2105     1.8860     3.9262 H
19 O19    -3.6649     2.7134     2.7631 O
20 C20    -0.3551     0.9672     3.8670 C
21 H21    -0.6979     1.7890     4.5157 H
22 H22    -0.3732     1.1767     2.7855 H
23 O23     0.0210    -0.1075     4.3179 O
24 C24     4.1040     1.6419     2.3470 C
25 H25     5.1111     1.4118     2.7299 H
26 H26     3.3225     0.9058     2.5939 H
27 O27     3.8691     2.6488     1.6906 O
28 C28    -3.2615     3.0575    -0.2620 C
29 H29    -3.5667     3.8587     0.4298 H
30 H30    -2.7979     3.3937    -1.2031 H
31 O31    -3.4266     1.8721    -0.0022 O
32 C32     3.5695    -2.8032     1.6978 C
33 H33     3.8546    -1.7486     1.8394 H
34 H34     4.3491    -3.4523     1.2681 H
35 O35     2.4600    -3.2259     1.9980 O
36 C36     0.2715     4.5099    -3.1896 C
37 H37    -0.1029     3.9435    -2.3220 H
38 H38     1.0496     5.2578    -2.9685 H
39 O39    -0.1493     4.3207    -4.3241 O
40 C40    -1.3876    -1.9722    -3.5844 C
41 H41    -0.4682    -1.9207    -4.1893 H
42 H42    -2.0624    -2.8114    -3.8170 H
43 O43    -1.6423    -1.1516    -2.7119 O
44 C44    -4.3333     0.9568    -1.3131 C
45 H45    -3.8181     1.8658    -1.6625 H
46 H46    -3.7471     0.0260    -1.3735 H
47 O47    -5.4809     0.9796    -0.8862 O
48 C48    -2.7412    -2.9518     0.7871 C
49 H49    -3.7436    -3.2449     1.1378 H
50 H50    -1.9418    -2.9957     1.5439 H
51 O51    -2.5296    -2.6008    -0.3669 O
52 C52    -2.5613    -2.3917    -2.2611 C
53 H53    -2.6403    -2.0495    -3.3053 H
54 H54    -1.9780    -3.3134    -2.1063 H
55 O55    -3.0867    -1.7878    -1.3342 O
56 C56     4.1023     0.4854     2.5426 C
57 H57     4.1808     0.0344     1.5405 H
58 H58     5.0558     0.6256     3.0762 H
59 O59     3.0268     0.8092     3.0307 O
60 C60    -1.5978     1.5822     3.0562 C
61 H61    -2.5987     2.0416     3.0302 H
62 H62    -0.7568     2.2830     3.1805 H
63 O63    -1.4310     0.3733     2.9539 O
64 C64    -4.4897     1.1462    -1.6726 C
65 H65    -5.3479     0.6996    -1.1455 H
66 H66    -4.6584     2.1533    -2.0862 H
67 O67    -3.4198     0.5622    -1.7909 O
68 C68    -0.6204    -0.9966     3.2909 C
69 H69    -0.2574    -1.1554     4.3189 H
70 H70    -0.6942     0.0549     2.9705 H
71 O71    -0.9218    -1.9269     2.5536 O
72 C72     2.5913     2.7761     2.3488 C
73 H73     1.9281     2.1612     2.9779 H
74 H74     2.1401     3.6935     1.9383 H
75 O75     3.7526     2.4609     2.1210 O
76 C76    -4.3266    -2.0812     1.3835 C
77 H77    -4.8737    -2.5614     0.5566 H
78 H78    -3.4698    -1.4558     1.0860 H
79 O79    -4.6493    -2.2325     2.5551 O
80 C80    -2.3727     4.3073    -0.0116 C
81 H81    -3.3842     4.6458     0.2641 H
82 H82    -2.2855     3.8270    -0.9993 H
83 O83    -1.4096     4.4549     0.7303 O
84 C84     3.2310     2.0595    -3.6299 C
85 H85     2.6765     2.5358    -4.4542 H
86 H86     3.9976     1.3287    -3.9333 H
87 O87     3.0100     2.3247    -2.4550 O
88 C88     4.0386     1.0492    -2.4473 C
89 H89     4.5852     0.2416    -2.9599 H
90 H90     2.9915     1.1872    -2.7607 H
91 O91     4.5603     1.7470    -1.5866 O
92 C92     1.1586     1.7501     3.8398 C
93 H93     1.4242     2.0393     2.8105 H
94 H94     0.1528     1.3191     3.9674 H
95 O95     1.9299     1.8979     4.7795 O
96 C96     3.8861    -3.5865     1.3104 C
97 H97     4.3577    -3.8744     0.3573 H
98 H98     4.5812    -3.3285     2.1253 H
99 O99     2.6704    -3.5555     1.4545 O
100 C100     5.3133     1.7220     1.3485 C
101 H101     4.2483     1.9055     1.5626 H
102 H102     5.5549     1.5007     0.2967 H
103 O103     6.1712     1.7614     2.2215 O
104 C104    -3.5502    -2.2022    -0.5157 C
105 H105    -3.3546    -2.1036    -1.5954 H
106 H106    -4.5839    -1.9898    -0.1991 H
107 O107    -2.6770    -2.5263     0.2794 O
108 C108     0.7118     1.5064     3.4209 C
109 H109    -0.2075     1.4116     4.0206 H
110 H110     1.3316     0.5980     3.3551 H
111 O111     1.0238     2.5518     2.8645 O
112 C112    -0.4104     3.3587    -3.0063 C
113 H113    -0.4799     2.5073    -3.7020 H
114 H114    -1.3577     3.8818    -2.7998 H
115 O115     0.6493     3.7010    -2.4967 O
116 C116     2.2793    -0.2985    -3.4174 C
117 H117     2.6674     0.5489    -2.8300 H
118 H118     2.9791    -1.1374    -3.5600 H
119 O119     1.1458    -0.3073    -3.8810 O
120 C120    -4.3775     0.1874    -0.4507 C
121 H121    -5.3165     0.7636    -0.4477 H
122 H122    -4.0275    -0.1552     0.5362 H
123 O123    -3.7638    -0.0559    -1.4821 O
124 C124    -0.9332    -2.2082    -2.8784 C
125 H125    -0.6173    -1.1574    -2.7791 H
126 H126    -1.3419    -2.6695    -1.9652 H
127 O127    -0.8364    -2.8224    -3.9335 O
128 C128     2.9113    -4.1020    -0.2415 C
129 H129     3.6407    -3.2912    -0.0854 H
130 H130     2.3783    -4.4414     0.6609 H
131 O131     2.7066    -4.5930    -1.3446 O
132 C132    -4.5748    -2.1612    -0.8194 C
133 H133    -5.2343    -1.9402    -1.6737 H
134 H134    -5.0001    -2.8260    -0.0507 H
135 O135    -3.4443    -1.6987    -0.7301 O
136 C136     3.4535     0.4279    -2.6439 C
137 H137     3.4416    -0.5631    -2.1628 H
138 H138     2.8166     0.5298    -3.5370 H
139 O139     4.1296     1.3543    -2.2146 O
140 C140     2.6201     4.7422     0.4405 C
141 H141     2.4317     5.6004    -0.2241 H
142 H142     3.0026     3.8345    -0.0530 H
143 O143     2.4179     4.7937     1.6472 O
144 C144    -1.9189     3.0048    -3.2339 C
145 H145    -1.1104     3.0218    -2.4857 H
146 H146    -2.8501     3.5140    -2.9384 H
147 O147    -1.7910     2.4564    -4.3214 O
148 C148     1.8565     5.2736    -1.4411 C
149 H149     1.0929     4.8624    -0.7617 H
150 H150     1.8877     6.3726    -1.5108 H
151 O151     2.6197     4.5568    -2.0763 O
152 C152     4.2566    -1.0381     2.4634 C
153 H153     5.1577    -0.4704     2.1815 H
154 H154     3.7959    -0.7522     3.4224 H
155 O155     3.7976    -1.9276     1.7577 O
156 C156     1.2869    -2.6253    -3.3243 C
157 H157     1.5410    -3.0780    -2.3526 H
158 H158     1.9755    -2.8593    -4.1518 H
159 O159     0.3045    -1.9096    -3.4746 O
160 C160    -1.6123     2.3439    -3.1679 C
161 H161    -1.9126     1.6737    -2.3467 H
162 H162    -0.5752     2.7130    -3.1244 H
163 O163    -2.3801     2.6577    -4.0689 O
164 C164     1.8714    -4.2392    -1.7628 C
165 H165     1.0784    -3.8129    -2.3978 H
166 H166     1.7792    -5.3155    -1.5465 H
167 O167     2.7936    -3.5618    -1.3264 O
168 C168     2.9410     0.6070     3.7897 C
169 H169     3.9257     0.4853     4.2685 H
170 H170     2.9069     0.3855     2.7110 H
171 O171     1.9504     0.9645     4.4148 O
172 C172     0.5607     5.0298     2.1665 C
173 H173     1.0226     5.9069     2.6472 H
174 H174     1.2623     4.2568     1.8144 H
175 O175    -0.6517     4.9213     2.0324 O
176 C176     1.8944    -1.7316    -2.9226 C
177 H177     1.3936    -0.7523    -2.9859 H
178 H178     2.9745    -1.6995    -2.7079 H
179 O179     1.2908    -2.7854    -3.0803 O
180 C180     0.6026    -2.3306    -3.5540 C
181 H181     1.5787    -2.6517    -3.1565 H
182 H182     0.4556    -2.4863    -4.6346 H
183 O183    -0.2612    -1.8338    -2.8421 O
184 C184     5.5693     0.0337     1.5293 C
185 H185     6.0322     0.5616     2.3783 H
186 H186     6.0060    -0.9479     1.2855 H
187 O187     4.6320     0.5065     0.8988 O
188 C188    -0.2336    -0.7195     3.3929 C
189 H189    -1.0921    -0.0462     3.2398 H
190 H190     0.5619    -0.3327     4.0497 H
191 O191    -0.1680    -1.8240     2.8682 O
192 C192     2.6486     4.0747     2.2871 C
193 H193     2.0158     3.1794     2.1794 H
194 H194     3.7331     3.9035     2.1956 H
195 O195     2.1780     5.1861     2.4947 O
196 C196    -1.8139     0.3592     3.6851 C
197 H197    -1.9041     1.4001     3.3356 H
198 H198    -1.3785    -0.3485     2.9616 H
199 O199    -2.1734     0.0120     4.8030 O
200 C200     2.4474     4.3903    -2.2027 C
201 H201     1.8906     3.4428    -2.1262 H
202 H202     2.8933     4.7562    -1.2641 H
203 O203     2.5630     4.9964    -3.2606 O
204 C204     2.8338    -4.0246    -0.0544 C
205 H205     3.9219    -4.1740    -0.1403 H
206 H206     2.2846    -3.9751    -1.0082 H
207 O207     2.2722    -3.9206     1.0289 O
208 C208     4.4557     2.9523     1.7199 C
209 H209     3.9548     3.7134     1.1006 H
210 H210     5.4579     3.2241     2.0880 H
211 O211     3.9334     1.8760     1.9818 O
212 C212     1.5465    -4.7199    -0.6533 C
213 H213     1.1529    -5.0799    -1.6173 H
214 H214     2.3696    -3.9907    -0.7190 H
215 O215     1.0988    -5.1048     0.4197 O
216 C216    -3.4665     2.2799    -1.1057 C
217 H217    -2.8204     2.4337    -0.2267 H
218 H218    -3.0816     1.5757    -1.8605 H
219 O219    -4.5408     2.8533    -1.2350 O
220 C220     3.3545     3.5700    -2.1614 C
221 H221     4.2777     4.1700    -2.1993 H
222 H222     3.4988     2.4829    -2.0561 H
223 O223     2.2422     4.0775    -2.2318 O
224 C224     3.6691    -2.2275     2.5201 C
225 H225     4.0375    -1.3895     1.9071 H
226 H226     4.3159    -2.5197     3.3627 H
227 O227     2.6112    -2.7961     2.2810 O
228 C228    -0.4462     1.7865     3.0787 C
229 H229     0.2299     2.5469     3.5012 H
230 H230     0.0070     0.8001     2.8905 H
231 O231    -1.6229     2.0220     2.8345 O
232 C232     0.3773    -2.6135    -2.6973 C
233 H233    -0.6634    -2.4218    -3.0038 H
234 H234     0.5488    -3.5642    -2.1678 H
235 O235     1.2830    -1.8226    -2.9298 O
236 C236    -4.8111    -0.9546    -1.3053 C
237 H237    -4.8536    -1.0171    -2.4044 H
238 H238    -3.9008    -0.4927    -0.8908 H
239 O239    -5.7154    -1.3707    -0.5919 O
240 C240    -3.4458     0.3754     2.2139 C
241 H241    -3.7479    -0.2385     1.3504 H
242 H242    -2.5330     0.0453     2.7350 H
243 O243    -4.0822     1.3590     2.5707 O
244 C244     2.9097     0.9723     3.3053 C
245 H245     1.8578     0.8758     2.9923 H
246 H246     3.1222     1.7927     4.0092 H
247 O247     3.7843     0.2180     2.8980 O
248 C248     2.6618     3.7864    -2.0896 C
249 H249     2.0680     3.1665    -2.7801 H
250 H250     3.6525     4.0942    -2.4603 H
251 O251     2.2482     4.1115    -0.9837 O
252 C252     3.4517     4.0785     0.9665 C
253 H253     2.4468     4.0843     0.5149 H
254 H254     3.5189     4.5038     1.9805 H
255 O255     4.4286     3.6294     0.3804 O
256 C256     1.9075     4.9166     1.3914 C
257 H257     1.7596     4.0637     2.0729 H
258 H258     1.5724     4.7589     0.3538 H
259 O259     2.4108     5.9696     1.7624 O
260 C260    -2.1791    -4.1020     0.0964 C
261 H261    -2.0953    -4.3048     1.1760 H
262 H262    -1.2947    -3.6392    -0.3699 H
263 O263    -3.1880    -4.3729    -0.5428 O
264 C264     0.7926     4.0517    -2.7259 C
265 H265     1.5960     3.4023    -2.3429 H
266 H266     1.0585     5.1137    -2.8488 H
267 O267    -0.3216     3.6217    -2.9968 O
268 C268    -3.5205     1.2636     2.8525 C
269 H269    -3.8307     2.3066     3.0247 H
270 H270    -4.3059     0.5047     2.9967 H
271 O271    -2.3788     0.9677     2.5227 O
272 C272    -0.3002     2.6130    -3.2470 C
273 H273    -0.3671     2.2227    -4.2751 H
274 H274     0.7200     2.8002    -2.8757 H
275 O275    -1.2936     2.8247    -2.5627 O
276 C276     4.9312     0.3414    -0.4751 C
277 H277     5.1045     0.4844     0.6034 H
278 H278     4.6370     1.2450    -1.0326 H
279 O279     5.0569    -0.7490    -1.0181 O
280 C280     1.6325     5.8031     1.3083 C
281 H281     1.7109     6.4864     0.4477 H
282 H282     1.8323     6.2549     2.2930 H
283 O283     1.3425     4.6203     1.1790 O
284 C284    -3.3552    -1.7152    -1.8140 C
285 H285    -2.6119    -2.2712    -1.2206 H
286 H286    -4.3957    -2.0651    -1.7198 H
287 O287    -3.0457    -0.7714    -2.5303 O
288 C288     5.4453    -0.5021    -0.4221 C
289 H289     4.5693    -0.1314     0.1338 H
290 H290     5.2207    -1.1453    -1.2879 H
291 O291     6.5919    -0.2183    -0.0992 O
292 C292     3.0596    -1.2215     3.0267 C
293 H293     3.0731    -2.1251     2.3965 H
294 H294     3.4153    -1.3582     4.0604 H
295 O295     2.6749    -0.1376     2.6063 O
296 C296     4.5822     1.6815    -2.6589 C
297 H297     5.5860     1.7203    -3.1113 H
298 H298     3.7419     1.8384    -3.3539 H
299 O299     4.4118     1.4777    -1.4635 O
300 C300    -1.5552     3.9843    -2.8150 C
301 H301    -2.4052     4.6155    -3.1194 H
302 H302    -0.5780     4.2676    -3.2377 H
303 O303    -1.6876     3.0313    -2.0573 O
304 C304     5.1018     2.0400    -0.2849 C
305 H305     4.4393     1.9789    -1.1631 H
306 H306     4.6023     2.2587     0.6724 H
307 O307     6.3125     1.8756    -0.3673 O
308 C308     2.3317    -0.0951    -3.2688 C
309 H309     3.1167     0.0574    -2.5110 H
310 H310     2.2989    -1.0982    -3.7232 H
311 O311     1.5480     0.7912    -3.5851 O
312 C312    -3.6565     0.4151     3.3041 C
313 H313    -4.1971    -0.4981     3.6003 H
314 H314    -3.8289     1.2968     3.9417 H
315 O315    -2.9137     0.4478     2.3310 O
316 C316     1.7709     0.4409     3.1122 C
317 H317     0.7777     0.7323     3.4895 H
318 H318     2.4697     1.2715     2.9237 H
319 O319     2.0777    -0.7283     2.9154 O
320 C320     5.4850     0.4937     0.6527 C
321 H321     6.3557     1.1592     0.7654 H
322 H322     5.3113    -0.2060     1.4857 H
323 O323     4.7588     0.5294    -0.3328 O
324 C324    -1.0406    -3.1289    -2.5554 C
325 H325    -1.8574    -3.0206    -3.2867 H
326 H326    -1.3444    -3.1005    -1.4967 H
327 O327     0.1269    -3.2714    -2.8963 O
328 C328    -3.9871    -0.8258     2.1128 C
329 H329    -3.1703    -0.6060     2.8186 H
330 H330    -4.9647    -1.0446     2.5713 H
331 O331    -3.8196    -0.8269     0.8997 O
332 C332    -1.7924    -3.6794    -0.7023 C
333 H333    -2.0245    -3.2250    -1.6788 H
334 H334    -1.4762    -4.7344    -0.7327 H
335 O335    -1.8799    -3.0537     0.3467 O
336 C336     3.2849     3.2558     2.9585 C
337 H337     3.3025     3.6596     3.9834 H
338 H338     4.0410     3.6692     2.2722 H
339 O339     2.4786     2.4042     2.6058 O
340 C340     1.1375     0.3687     3.3631 C
341 H341     2.0940    -0.1780     3.3653 H
342 H342     0.2713    -0.1885     3.7542 H
343 O343     1.0434     1.5189     2.9533 O
344 C344    -2.5991     2.4620    -2.4899 C
345 H345    -2.9858     3.4844    -2.6273 H
346 H346    -1.5045     2.3766    -2.3984 H
347 O347    -3.3367     1.4856    -2.4420 O
348 C348    -0.4626    -2.8118    -3.7893 C
349 H349     0.3567    -3.2138    -4.4065 H
350 H350    -1.4785    -2.9799    -4.1809 H
351 O351    -0.2576    -2.2178    -2.7382 O
352 C352    -2.4768    -0.1072     2.6502 C
353 H353    -3.4165    -0.3494     2.1285 H
354 H354    -1.9423    -0.9651     3.0884 H
355 O355    -2.0546     1.0391     2.7371 O
356 C356    -1.7813     4.4108    -1.2959 C
357 H357    -2.2127     3.4522    -0.9662 H
358 H358    -2.4932     5.2472    -1.3825 H
359 O359    -0.5899     4.5382    -1.5492 O
360 C360     3.8361     2.7934     1.4170 C
361 H361     4.6542     2.7316     0.6817 H
362 H362     3.0612     3.5467     1.2027 H
363 O363     3.7911     2.0731     2.4063 O
364 C364    -4.3490    -2.1775     1.2505 C
365 H365    -5.2253    -1.8024     1.8029 H
366 H366    -4.1456    -3.2549     1.3578 H
367 O367    -3.6478    -1.4456     0.5631 O
368 C368    -2.9762    -0.2314     2.9279 C
369 H369    -3.3347    -1.2478     2.6998 H
370 H370    -3.1253     0.5147     2.1311 H
371 O371    -2.4471     0.0504     3.9958 O
372 C372    -1.7228     0.5931     3.3512 C
373 H373    -1.1715     1.5056     3.0731 H
374 H374    -1.4772     0.1727     4.3395 H
375 O375    -2.5530     0.0805     2.6112 O
376 C376    -2.1420    -3.6351    -0.5823 C
377 H377    -3.0525    -3.8365    -1.1689 H
378 H378    -2.2992    -3.4645     0.4948 H
379 O379    -1.0295    -3.6029    -1.0932 O
380 C380     1.1852     4.1170    -3.0987 C
381 H381     2.2364     3.8823    -2.8675 H
382 H382     0.9810     4.4021    -4.1431 H
383 O383     0.3025     4.0645    -2.2514 O
384 C384     2.5324    -0.1035    -3.7624 C
385 H385     1.8831     0.0921    -4.6307 H
386 H386     3.4776     0.4620    -3.7393 H
387 O387     2.2241    -0.8966    -2.8817 O
388 C388    -2.2148    -2.9293     1.5849 C
389 H389    -1.9252    -3.4860     2.4905 H
390 H390    -1.6811    -3.2115     0.6633 H
391 O391    -3.0725    -2.0554     1.6016 O
392 C392     1.9155     0.9687     3.6471 C
393 H393     1.8449     1.7859     2.9117 H
394 H394     2.5206     0.1018     3.3371 H
395 O395     1.3585     1.0204     4.7366 O
396 C396     1.5354     5.2891    -2.1708 C
397 H397     1.3567     4.9888    -3.2156 H
398 H398     1.6819     6.3684    -2.0055 H
399 O399     1.5690     4.4774    -1.2544 O
400 C400     2.0058    -0.2345    -3.5264 C
401 H401     1.3341     0.4100    -4.1155 H
402 H402     1.5191    -1.0683    -2.9957 H
403 O403     3.2130    -0.0373    -3.4654 O
404 C404    -1.3484     3.2092     3.6095 C
405 H405    -0.8264     2.9223     4.5363 H
406 H406    -2.0154     4.0822     3.6911 H
407 O407    -1.1973     2.5985     2.5588 O
@<TRIPOS>BOND
1 1 2 1
2 1 3 1
3 1 6 1
4 3 4 1
5 3 5 1
6 6 7 1
7 8 9 1
8 8 10 1
9 8 11 1
10 12 13 1
11 12 14 1
12 12 15 1
13 16 17 1
14 16 18 1
15 16 19 1
16 20 21 1
17 20 22 1
18 20 23 1
19 24 25 1
20 24 26 1
21 24 27 1
22 28 29 1
23 28 30 1
24 28 31 1
25 32 33 1
26 32 34 1
27 32 35 1
28 36 37 1
29 36 38 1
30 36 39 1
31 40 41 1
32 40 42 1
33 40 43 1
34 44 45 1
35 44 46 1
36 44 47 1
37 48 49 1
38 48 50 1
39 48 51 1
40 52 53 1
41 52 54 1
42 52 55 1
43 56 57 1
44 56 58 1
45 56 59 1
46 60 61 1
47 60 62 1
48 60 63 1
49 64 65 1
50 64 66 1
51 64 67 1
52 68 69 1
53 68 70 1
54 68 71 1
55 72 73 1
56 72 74 1
57 72 75 1
58 76 77 1
59 76 78 1
60 76 79 1
61 80 81 1
62 80 82 1
63 80 83 1
64 84 85 1
65 84 86 1
66 84 87 1
67 88 89 1
68 88 90 1
69 88 91 1
70 92 93 1
71 92 94 1
72 92 95 1
73 96 97 1
74 96 98 1
75 96 99 1
76 100 101 1
77 100 102 1
78 100 103 1
79 104 105 1
80 104 106 1
81 104 107 1
82 108 109 1
83 108 110 1
84 108 111 1
85 112 113 1
86 112 114 1
87 112 115 1
88 116 117 1
89 116 118 1
90 116 119 1
91 120 121 1
92 120 122 1
93 120 123 1
94 124 125 1
95 124 126 1
96 124 127 1
97 128 129 1
98 128 130 1
99 128 131 1
100 132 133 1
101 132 134 1
102 132 135 1
103 136 137 1
104 136 138 1
105 136 139 1
106 140 141 1
107 140 142 1
108 140 143 1
109 144 145 1
110 144 146 1
111 144 147 1
112 148 149 1
113 148 150 1
114 148 151 1
115 152 153 1
116 152 154 1
117 152 155 1
118 156 157 1
119 156 158 1
120 156 159 1
121 160 161 1
122 160 162 1
123 160 163 1
124 164 165 1
125 164 166 1
126 164 167 1
127 168 169 1
128 168 170 1
129 168 171 1
130 172 173 1
131 172 174 1
132 172 175 1
133 176 177 1
134 176 178 1
135 176 179 1
136 180 181 1
137 180 182 1
138 180 183 1
139 184 185 1
140 184 186 1
141 184 187 1
142 188 189 1
143 188 190 1
144 188 191 1
145 192 193 1
146 192 194 1
147 192 195 1
148 196 197 1
149 196 198 1
150 196 199 1
151 200 201 1
152 200 202 1
153 200 203 1
154 204 205 1
155 204 206 1
156 204 207 1
157 208 209 1
158 208 210 1
159 208 211 1
160 212 213 1
161 212 214 1
162 212 215 1
163 216 217 1
164 216 218 1
165 216 219 1
166 220 221 1
167 220 222 1
168 220 223 1
169 224 225 1
170 224 226 1
171 224 227 1
172 228 229 1
173 228 230 1
174 228 231 1
175 232 233 1
176 232 234 1
177 232 235 1
178 236 237 1
179 236 238 1
180 236 239 1
181 240 241 1
182 240 242 1
183 240 243 1
184 244 245 1
185 244 246 1
186 244 247 1
187 248 249 1
188 248 250 1
189 248 251 1
190 252 253 1
191 252 254 1
192 252 255 1
193 256 257 1
194 256 258 1
195 256 259 1
196 260 261 1
197 260 262 1
198 260 263 1
199 264 265 1
200 264 266 1
201 264 267 1
202 268 269 1
203 268 270 1
204 268 271 1
205 272 273 1
206 272 274 1
207 272 275 1
208 276 277 1
209 276 278 1
210 276 279 1
211 280 281 1
212 280 282 1
213 280 283 1
214 284 285 1
215 284 286 1
216 284 287 1
217 288 289 1
218 288 290 1
219 288 291 1
220 292 293 1
221 292 294 1
222 292 295 1
223 296 297 1
224 296 298 1
225 296 299 1
226 300 301 1
227 300 302 1
228 300 303 1
229 304 305 1
230 304 306 1
231 304 307 1
232 308 309 1
233 308 310 1
234 308 311 1
235 312 313 1
236 312 314 1
237 312 315 1
238 316 317 1
239 316 318 1
240 316 319 1
241 320 321 1
242 320 322 1
243 320 323 1
244 324 325 1
245 324 326 1
246 324 327 1
247 328 329 1
248 328 330 1
249 328 331 1
250 332 333 1
251 332 334 1
252 332 335 1
253 336 337 1
254 336 338 1
255 336 339 1
256 340 341 1
257 340 342 1
258 340 343 1
259 344 345 1
260 344 346 1
261 344 347 1
262 348 349 1
263 348 350 1
264 348 351 1
265 352 353 1
266 352 354 1
267 352 355 1
268 356 357 1
269 356 358 1
270 356 359 1
271 360 361 1
272 360 362 1
273 360 363 1
274 364 365 1
275 364 366 1
276 364 367 1
277 368 369 1
278 368 370 1
279 368 371 1
280 372 373 1
281 372 374 1
282 372 375 1
283 376 377 1
284 376 378 1
285 376 379 1
286 380 381 1
287 380 382 1
288 380 383 1
289 384 385 1
290 384 386 1
291 384 387 1
292 388 389 1
293 388 390 1
294 388 391 1
295 392 393 1
296 392 394 1
297 392 395 1
298 396 397 1
299 396 398 1
300 396 399 1
301 400 401 1
302 400 402 1
303 400 403 1
304 404 405 1
305 404 406 1
306 404 407 1
