# Title
# Created by GaussView 5.0.8
#

#
#

@<TRIPOS>MOLECULE
Molecule Name
1415 1314
SMALL
NO_CHARGES


@<TRIPOS>ATOM
1 C1     0.0000     0.0000     0.0000 C
2 C2    -1.3390     0.0000     0.0000 C
3 H3     0.5559     0.9314     0.0000 H
4 H4     0.5686    -0.9265    -0.0001 H
5 H5    -1.9061     0.9226    -0.0001 H
6 C6    -2.0971    -1.2694    -0.0002 C
7 O7    -1.6031    -2.3842    -0.0014 O
8 O8    -3.4183    -0.9633    -0.0029 O
9 C9    -4.3117    -2.0860     0.0018 C
10 C10    -4.5751    -2.5519    -1.4179 C
11 H11    -5.2481    -1.7477     0.4576 H
12 H12    -3.9261    -2.9004     0.6260 H
13 H13    -4.9608    -1.7282    -2.0275 H
14 H14    -5.3011    -3.3697    -1.4293 H
15 H15    -3.6526    -2.8968    -1.8957 H
16 C16    -6.2147    -6.9092    -5.6268 C
17 H17    -7.1819    -7.3834    -5.7641 H
18 H18    -6.1531    -6.1333    -4.8727 H
19 H19    -5.3173    -8.0771    -7.1066 H
20 C20    -5.1688    -7.2883    -6.3698 C
21 C21    -3.8246    -6.7609    -6.3106 C
22 C22    -3.3718    -5.7955    -5.5034 C
23 H23    -3.1208    -7.2133    -7.0079 H
24 H24    -3.9890    -5.2846    -4.7778 H
25 O25    -2.0641    -5.3861    -5.5494 O
26 C26    -1.7819    -4.3505    -4.6126 C
27 H27    -0.7263    -4.0814    -4.7111 H
28 H28    -1.9547    -4.6959    -3.5875 H
29 H29    -2.3849    -3.4607    -4.8233 H
30 C30   -11.8131    -7.4018     0.0979 C
31 H31   -12.5876    -7.7354     0.7821 H
32 H32   -11.3560    -6.4417     0.3072 H
33 H33   -11.9739    -9.1166    -1.0822 H
34 C34   -11.4634    -8.1639    -0.9445 C
35 C35   -10.4591    -7.8661    -1.9400 C
36 C36    -9.6900    -6.7741    -2.0083 C
37 H37   -10.3317    -8.6274    -2.7084 H
38 H38    -9.7394    -5.9627    -1.2957 H
39 O39    -8.7697    -6.6147    -3.0119 O
40 C40    -8.0531    -5.3879    -2.9073 C
41 H41    -7.3437    -5.3366    -3.7384 H
42 H42    -7.4882    -5.3463    -1.9698 H
43 H43    -8.7334    -4.5327    -2.9825 H
44 C44    -7.9893    -3.0183     0.9508 C
45 H45    -7.7591    -3.9823     0.5072 H
46 H46    -7.6088    -2.8359     1.9491 H
47 H47    -9.0550    -2.3847    -0.7291 H
48 C48    -8.7109    -2.1205     0.2704 C
49 C49    -9.1006    -0.8020     0.7157 C
50 C50    -8.8145    -0.2301     1.8902 C
51 H51    -9.6907    -0.2299     0.0012 H
52 H52    -8.2364    -0.7134     2.6654 H
53 O53    -9.2484     1.0357     2.1887 O
54 C54    -8.8402     1.4626     3.4851 C
55 H55    -9.2231     2.4745     3.6461 H
56 H56    -7.7476     1.4925     3.5584 H
57 H57    -9.2579     0.8095     4.2589 H
58 C58    -0.3186    -8.7627    -5.6006 C
59 H59     0.4991    -9.4021    -5.9197 H
60 H60    -0.6698    -8.0257    -6.3134 H
61 H61    -0.4324    -9.6709    -3.7241 H
62 C62    -0.8452    -8.9041    -4.3790 C
63 C63    -1.9288    -8.1384    -3.8062 C
64 C64    -2.6097    -7.1450    -4.3875 C
65 H65    -2.2039    -8.4179    -2.7902 H
66 H66    -2.4142    -6.7934    -5.3909 H
67 O67    -3.6223    -6.4969    -3.7285 O
68 C68    -4.2208    -5.4726    -4.5173 C
69 H69    -5.0136    -5.0067    -3.9250 H
70 H70    -4.6701    -5.8925    -5.4238 H
71 H71    -3.4865    -4.7020    -4.7759 H
72 C72    -0.7802    -1.3933    -3.6723 C
73 H73    -0.0384    -2.1296    -3.3775 H
74 H74    -1.3244    -0.9011    -2.8747 H
75 H75    -0.3968    -1.6705    -5.7058 H
76 C76    -0.9879    -1.1298    -4.9673 C
77 C77    -1.9311    -0.1851    -5.5210 C
78 C78    -2.7737     0.6035    -4.8454 C
79 H79    -1.9393    -0.1257    -6.6085 H
80 H80    -2.8425     0.6195    -3.7666 H
81 O81    -3.6222     1.4606    -5.4974 O
82 C82    -4.4365     2.2113    -4.6013 C
83 H83    -5.0805     2.8665    -5.1950 H
84 H84    -3.8198     2.8364    -3.9465 H
85 H85    -5.0745     1.5480    -4.0074 H
86 C86    -4.1294    -1.4738     5.3592 C
87 H87    -3.6297    -0.6632     5.8812 H
88 H88    -3.4964    -2.1903     4.8487 H
89 H89    -6.0261    -0.7921     5.9039 H
90 C90    -5.4647    -1.5550     5.3655 C
91 C91    -6.2764    -2.5642     4.7243 C
92 C92    -5.8479    -3.6064     4.0042 C
93 H93    -7.3509    -2.4428     4.8548 H
94 H94    -4.8037    -3.8146     3.8167 H
95 O95    -6.7299    -4.4957     3.4467 O
96 C96    -6.0760    -5.5323     2.7203 C
97 H97    -6.8428    -6.1954     2.3095 H
98 H98    -5.4294    -6.1210     3.3799 H
99 H99    -5.4975    -5.1180     1.8875 H
100 C100     5.9574    -0.9441     0.8953 C
101 H101     6.6822    -1.4641     0.2760 H
102 H102     5.9686    -1.1699     1.9553 H
103 H103     5.1615     0.0964    -0.7304 H
104 C104     5.1052    -0.0723     0.3445 C
105 C105     4.0879     0.6960     1.0252 C
106 C106     3.8056     0.6814     2.3323 C
107 H107     3.4992     1.3511     0.3845 H
108 H108     4.3307     0.0671     3.0504 H
109 O109     2.8080     1.4647     2.8527 O
110 C110     2.6654     1.3050     4.2611 C
111 H111     1.8553     1.9587     4.5971 H
112 H112     3.5835     1.6000     4.7807 H
113 H113     2.3997     0.2720     4.5103 H
114 C114    -0.3747    -3.6326    -6.9905 C
115 H115     0.4276    -4.3480    -7.1443 H
116 H116    -0.4265    -2.7999    -7.6822 H
117 H117    -1.1172    -4.6660    -5.3352 H
118 C118    -1.2412    -3.8003    -5.9852 C
119 C119    -2.3560    -2.9449    -5.6476 C
120 C120    -2.7325    -1.8253    -6.2748 C
121 H121    -2.9389    -3.2661    -4.7855 H
122 H122    -2.2213    -1.4231    -7.1383 H
123 O123    -3.8168    -1.1025    -5.8490 O
124 C124    -4.0519     0.0533    -6.6480 C
125 H125    -4.9273     0.5719    -6.2464 H
126 H126    -4.2644    -0.2278    -7.6852 H
127 H127    -3.1970     0.7366    -6.6042 H
128 C128    -1.4675   -11.6554    -0.9410 C
129 H129    -1.2293   -12.7038    -1.0939 H
130 H130    -2.2076   -11.4277    -0.1827 H
131 H131    -0.1254   -11.0299    -2.4130 H
132 C132    -0.8580   -10.7143    -1.6708 C
133 C133    -1.0612    -9.2857    -1.5903 C
134 C134    -1.8953    -8.6345    -0.7727 C
135 H135    -0.4592    -8.6951    -2.2795 H
136 H136    -2.5342    -9.1279    -0.0536 H
137 O137    -1.9922    -7.2671    -0.7983 O
138 C138    -2.9338    -6.7675     0.1468 C
139 H139    -2.9523    -5.6770     0.0644 H
140 H140    -2.6367    -7.0304     1.1678 H
141 H141    -3.9389    -7.1459    -0.0686 H
142 C142     5.6832    -2.5778     0.1903 C
143 H143     6.5606    -2.1521     0.6678 H
144 H144     4.7845    -2.6477     0.7920 H
145 H145     6.6862    -2.8802    -1.6157 H
146 C146     5.7422    -2.9868    -1.0821 C
147 C147     4.6715    -3.5708    -1.8573 C
148 C148     3.4206    -3.8129    -1.4508 C
149 H149     4.9343    -3.8347    -2.8807 H
150 H150     3.0612    -3.5880    -0.4563 H
151 O151     2.4961    -4.3751    -2.2926 O
152 C152     1.2261    -4.5509    -1.6715 C
153 H153     0.5492    -5.0012    -2.4032 H
154 H154     0.8073    -3.5868    -1.3631 H
155 H155     1.3035    -5.2267    -0.8129 H
156 C156    -6.9846    -0.9515    -4.8723 C
157 H157    -7.3966    -1.8405    -4.4043 H
158 H158    -6.3892    -0.2993    -4.2440 H
159 H159    -7.8295    -1.4108    -6.7255 H
160 C160    -7.2197    -0.7024    -6.1655 C
161 C161    -6.7476     0.4280    -6.9321 C
162 C162    -5.9874     1.4379    -6.4953 C
163 H163    -7.0564     0.4380    -7.9765 H
164 H164    -5.6294     1.5203    -5.4785 H
165 O165    -5.6071     2.4548    -7.3324 O
166 C166    -4.8022     3.4308    -6.6773 C
167 H167    -4.5421     4.2027    -7.4073 H
168 H168    -3.8745     2.9830    -6.3047 H
169 H169    -5.3545     3.9040    -5.8582 H
170 C170     2.5184     1.9878     3.5679 C
171 H171     2.7881     1.4463     4.4697 H
172 H172     1.6126     2.5815     3.6064 H
173 H173     4.1844     1.2843     2.5243 H
174 C174     3.2897     1.9044     2.4779 C
175 C175     3.0718     2.5582     1.2077 C
176 C176     2.0598     3.3692     0.8811 C
177 H177     3.8259     2.3541     0.4489 H
178 H178     1.2623     3.6338     1.5613 H
179 O179     1.9712     3.9275    -0.3680 O
180 C180     0.8234     4.7583    -0.5157 C
181 H181     0.8252     5.1630    -1.5320 H
182 H182     0.8571     5.5967     0.1884 H
183 H183    -0.0961     4.1792    -0.3776 H
184 C184    -5.2712    -1.9066    -6.6219 C
185 H185    -4.9623    -2.9476    -6.6082 H
186 H186    -5.0023    -1.3283    -7.4981 H
187 H187    -6.1798    -2.0449    -4.7472 H
188 C188    -5.9502    -1.3933    -5.5898 C
189 C189    -6.4303    -0.0370    -5.4544 C
190 C190    -6.2874     0.9608    -6.3333 C
191 H191    -6.9636     0.1728    -4.5282 H
192 H192    -5.7755     0.8551    -7.2796 H
193 O193    -6.7945     2.2091    -6.0800 O
194 C194    -6.5376     3.1289    -7.1371 C
195 H195    -6.9707     4.0944    -6.8604 H
196 H196    -7.0094     2.7939    -8.0672 H
197 H197    -5.4602     3.2639    -7.2816 H
198 C198    -2.8349     9.5492     0.5898 C
199 H199    -2.7318    10.6238     0.7074 H
200 H200    -3.8152     9.1794     0.3125 H
201 H201    -0.8311     9.2020     1.0623 H
202 C202    -1.7818     8.7476     0.7852 C
203 C203    -1.7532     7.3074     0.6693 C
204 C204    -2.7720     6.5039     0.3453 C
205 H205    -0.7870     6.8477     0.8722 H
206 H206    -3.7686     6.8609     0.1260 H
207 O207    -2.6090     5.1447     0.2700 O
208 C208    -3.8105     4.4686    -0.0889 C
209 H209    -3.5986     3.3962    -0.1274 H
210 H210    -4.1550     4.7870    -1.0788 H
211 H211    -4.5909     4.6384     0.6607 H
212 C212    -5.2131     1.2824     4.9474 C
213 H213    -4.5535     1.4501     5.7935 H
214 H214    -6.2597     1.1101     5.1699 H
215 H215    -3.6590     1.4751     3.5665 H
216 C216    -4.7249     1.2943     3.7019 C
217 C217    -5.4643     1.0897     2.4772 C
218 C218    -6.7744     0.8501     2.3565 C
219 H219    -4.8699     1.1404     1.5660 H
220 H220    -7.4495     0.7809     3.1980 H
221 O221    -7.3542     0.6736     1.1267 O
222 C222    -8.7553     0.4303     1.2122 C
223 H223    -9.1405     0.3011     0.1966 H
224 H224    -9.2705     1.2817     1.6698 H
225 H225    -8.9569    -0.4870     1.7759 H
226 C226     0.4933    -0.5727    -3.6109 C
227 H227    -0.3508    -0.3957    -2.9511 H
228 H228     0.5258    -1.5304    -4.1172 H
229 H229     1.3222     1.3037    -3.2220 H
230 C230     1.4314     0.3679    -3.7691 C
231 C231     2.6083     0.2889    -4.6041 C
232 C232     2.9824    -0.7373    -5.3758 C
233 H233     3.2452     1.1723    -4.5877 H
234 H234     2.4205    -1.6569    -5.4613 H
235 O235     4.1301    -0.6826    -6.1237 O
236 C236     4.3509    -1.8728    -6.8748 C
237 H237     5.2793    -1.7507    -7.4403 H
238 H238     3.5347    -2.0410    -7.5857 H
239 H239     4.4638    -2.7364    -6.2105 H
240 C240    -3.7015    -4.6777    -4.8609 C
241 H241    -4.6546    -5.0762    -4.5264 H
242 H242    -2.9119    -5.3948    -5.0530 H
243 H243    -4.3887    -2.7070    -4.8032 H
244 C244    -3.5425    -3.3587    -5.0185 C
245 C245    -2.3465    -2.6738    -5.4533 C
246 C246    -1.1738    -3.2273    -5.7802 C
247 H247    -2.4325    -1.5898    -5.5142 H
248 H248    -0.9869    -4.2918    -5.7529 H
249 O249    -0.1116    -2.4579    -6.1794 O
250 C250     1.0434    -3.2349    -6.4825 C
251 H251     1.8408    -2.5526    -6.7907 H
252 H252     0.8420    -3.9246    -7.3093 H
253 H253     1.3842    -3.7856    -5.5991 H
254 C254    -7.4584    -3.8693    -5.3253 C
255 H255    -8.1998    -4.6573    -5.2328 H
256 H256    -6.5142    -4.0240    -4.8163 H
257 H257    -8.7045    -2.6964    -6.5215 H
258 C258    -7.7294    -2.7721    -6.0412 C
259 C259    -6.8573    -1.6408    -6.2607 C
260 C260    -5.6162    -1.4761    -5.7907 C
261 H261    -7.2771    -0.8484    -6.8787 H
262 H262    -5.1107    -2.2026    -5.1698 H
263 O263    -4.8924    -0.3472    -6.0757 O
264 C264    -3.5970    -0.3637    -5.4831 C
265 H265    -3.0866     0.5646    -5.7556 H
266 H266    -3.0067    -1.2049    -5.8624 H
267 H267    -3.6695    -0.4086    -4.3911 H
268 C268     2.3409    -7.8848     3.3395 C
269 H269     2.5201    -8.4642     4.2402 H
270 H270     1.9824    -6.8708     3.4735 H
271 H271     2.9228    -9.4540     2.0912 H
272 C272     2.5621    -8.4268     2.1366 C
273 C273     2.3743    -7.7940     0.8509 C
274 C274     1.9445    -6.5489     0.6199 C
275 H275     2.6150    -8.4173    -0.0091 H
276 H276     1.6803    -5.8526     1.4036 H
277 O277     1.8100    -6.0690    -0.6573 O
278 C278     1.3403    -4.7244    -0.6899 C
279 H279     1.2603    -4.4176    -1.7368 H
280 H280     2.0459    -4.0538    -0.1878 H
281 H281     0.3480    -4.6481    -0.2323 H
282 C282    -9.1304    -8.0427     0.7005 C
283 H283   -10.0708    -8.4815     0.3807 H
284 H284    -9.1701    -7.3602     1.5415 H
285 H285    -8.0430    -9.0468    -0.7722 H
286 C286    -7.9943    -8.3509     0.0649 C
287 C287    -6.6698    -7.8565     0.3644 C
288 C288    -6.3288    -6.9987     1.3321 C
289 H289    -5.8790    -8.2371    -0.2805 H
290 H290    -7.0377    -6.5646     2.0233 H
291 O291    -5.0265    -6.6086     1.5095 O
292 C292    -4.8719    -5.6931     2.5900 C
293 H293    -3.8124    -5.4322     2.6656 H
294 H294    -5.1816    -6.1517     3.5354 H
295 H295    -5.4401    -4.7749     2.4059 H
296 C296    -4.3513    -3.2108    -5.4712 C
297 H297    -4.1883    -3.9165    -4.6621 H
298 H298    -5.1817    -3.4140    -6.1374 H
299 H299    -2.7346    -2.0212    -4.8966 H
300 C300    -3.5470    -2.1510    -5.6110 C
301 C301    -3.6288    -1.1265    -6.6270 C
302 C302    -4.5224    -1.0434    -7.6184 C
303 H303    -2.8706    -0.3478    -6.5584 H
304 H304    -5.3130    -1.7645    -7.7727 H
305 O305    -4.4882    -0.0123    -8.5214 O
306 C306    -5.5222    -0.1049    -9.4969 C
307 H307    -5.4270     0.7480   -10.1752 H
308 H308    -6.5088    -0.0592    -9.0232 H
309 H309    -5.4218    -1.0242   -10.0839 H
310 C310     1.0158    -6.4224    -1.9098 C
311 H311     1.5931    -6.7929    -1.0680 H
312 H312     0.9535    -7.0646    -2.7806 H
313 H313     0.5354    -4.6430    -0.9288 H
314 C314     0.4221    -5.2254    -1.8427 C
315 C315    -0.3757    -4.5929    -2.8684 C
316 C316    -0.6715    -5.0830    -4.0770 C
317 H317    -0.7684    -3.6112    -2.6070 H
318 H318    -0.3309    -6.0459    -4.4313 H
319 O319    -1.4440    -4.3752    -4.9612 O
320 C320    -1.6432    -5.0681    -6.1900 C
321 H321    -2.2648    -4.4418    -6.8365 H
322 H322    -2.1671    -6.0152    -6.0217 H
323 H323    -0.6880    -5.2438    -6.6965 H
324 C324    -1.2146    -3.9919     3.6006 C
325 H325    -1.0395    -3.1219     4.2265 H
326 H326    -1.0404    -3.8726     2.5376 H
327 H327    -1.7767    -5.1756     5.2260 H
328 C328    -1.6256    -5.1415     4.1475 C
329 C329    -1.9017    -6.3814     3.4583 C
330 C330    -1.7989    -6.6146     2.1455 C
331 H331    -2.2273    -7.2012     4.0971 H
332 H332    -1.4849    -5.8688     1.4286 H
333 O333    -2.0932    -7.8450     1.6172 O
334 C334    -1.9213    -7.8888     0.2036 C
335 H335    -2.1742    -8.8965    -0.1386 H
336 H336    -0.8800    -7.6844    -0.0679 H
337 H337    -2.5923    -7.1787    -0.2918 H
338 C338    -3.1646    -2.1919     7.2352 C
339 H339    -3.7293    -1.7475     8.0494 H
340 H340    -3.4672    -1.9271     6.2287 H
341 H341    -1.9110    -3.2359     8.5380 H
342 C342    -2.1493    -3.0228     7.4964 C
343 C343    -1.3048    -3.6921     6.5333 C
344 C344    -1.3779    -3.6080     5.2006 C
345 H345    -0.5320    -4.3287     6.9617 H
346 H346    -2.1075    -3.0047     4.6788 H
347 O347    -0.5094    -4.2998     4.3963 O
348 C348    -0.7519    -4.0769     3.0103 C
349 H349    -0.0229    -4.6595     2.4396 H
350 H350    -0.6204    -3.0192     2.7578 H
351 H351    -1.7560    -4.4149     2.7320 H
352 C352    -6.1060     0.9945    -2.7838 C
353 H353    -5.9308     1.6775    -1.9580 H
354 H354    -6.9888     0.3689    -2.7222 H
355 H355    -4.3890     1.6161    -3.7963 H
356 C356    -5.2528     0.9522    -3.8134 C
357 C357    -5.3424     0.1057    -4.9813 C
358 C358    -6.2931    -0.7943    -5.2542 C
359 H359    -4.5376     0.2313    -5.7044 H
360 H360    -7.1324    -0.9935    -4.6025 H
361 O361    -6.2591    -1.5369    -6.4062 O
362 C362    -7.3589    -2.4366    -6.5098 C
363 H363    -7.2596    -2.9881    -7.4492 H
364 H364    -8.3078    -1.8898    -6.5305 H
365 H365    -7.3505    -3.1574    -5.6851 H
366 C366    -8.8533     1.1964    -0.2096 C
367 H367    -9.2433     1.3324     0.7947 H
368 H368    -8.6906     2.0928    -0.7966 H
369 H369    -8.7888    -0.8813    -0.0136 H
370 C370    -8.5965    -0.0332    -0.6700 C
371 C371    -8.0789    -0.3820    -1.9735 C
372 C372    -7.7589     0.4564    -2.9650 C
373 H373    -7.9426    -1.4489    -2.1449 H
374 H374    -7.8574     1.5307    -2.8947 H
375 O375    -7.2745    -0.0086    -4.1603 O
376 C376    -6.9949     1.0405    -5.0827 C
377 H377    -6.6152     0.5905    -6.0045 H
378 H378    -6.2261     1.7124    -4.6858 H
379 H379    -7.9054     1.6001    -5.3226 H
380 C380    -7.3408     0.0708    -3.3529 C
381 H381    -8.3769    -0.1191    -3.0891 H
382 H382    -6.9803    -0.3764    -4.2719 H
383 H383    -7.0146     1.2374    -1.6523 H
384 C384    -6.5727     0.8255    -2.5591 C
385 C385    -5.1847     1.1706    -2.7664 C
386 C386    -4.4060     0.8018    -3.7892 C
387 H387    -4.7458     1.8000    -1.9935 H
388 H388    -4.7459     0.1794    -4.6052 H
389 O389    -3.0968     1.2013    -3.8656 O
390 C390    -2.4400     0.7041    -5.0280 C
391 H391    -1.4073     1.0645    -5.0153 H
392 H392    -2.9235     1.0774    -5.9372 H
393 H393    -2.4223    -0.3911    -5.0261 H
394 C394   -10.8926    -4.6849    -3.6091 C
395 H395   -11.9494    -4.4365    -3.6331 H
396 H396   -10.6386    -5.7272    -3.4550 H
397 H397   -10.3146    -2.7023    -3.9158 H
398 C398    -9.9730    -3.7260    -3.7656 C
399 C399    -8.5372    -3.8900    -3.7592 C
400 C400    -7.8563    -5.0294    -3.5959 C
401 H401    -7.9679    -2.9731    -3.9049 H
402 H402    -8.3272    -5.9908    -3.4447 H
403 O403    -6.4855    -5.0464    -3.6108 O
404 C404    -5.9525    -6.3538    -3.4202 C
405 H405    -4.8613    -6.2830    -3.4449 H
406 H406    -6.2720    -7.0250    -4.2248 H
407 H407    -6.2492    -6.7564    -2.4457 H
408 C408    -9.6516     0.4900     0.9567 C
409 H409    -9.7066     0.1500    -0.0732 H
410 H410   -10.5477     0.9351     1.3732 H
411 H411    -7.6610    -0.1077     1.1554 H
412 C412    -8.5163     0.3511     1.6506 C
413 C413    -8.2811     0.7489     3.0199 C
414 C414    -9.1519     1.3301     3.8519 C
415 H415    -7.2791     0.5434     3.3939 H
416 H416   -10.1685     1.5752     3.5775 H
417 O417    -8.7982     1.6583     5.1351 O
418 C418    -9.8644     2.2669     5.8579 C
419 H419    -9.5047     2.4969     6.8650 H
420 H420   -10.7156     1.5830     5.9445 H
421 H421   -10.1728     3.2033     5.3806 H
422 C422     4.1048     2.2152     1.2471 C
423 H423     4.8517     1.9122     0.5194 H
424 H424     4.3384     2.0378     2.2905 H
425 H425     2.8057     2.9203    -0.2274 H
426 C426     2.9609     2.7780     0.8416 C
427 C427     1.8733     3.2337     1.6770 C
428 C428     1.8038     3.1795     3.0114 C
429 H429     1.0291     3.6645     1.1403 H
430 H430     2.5872     2.7716     3.6348 H
431 O431     0.7067     3.6502     3.6856 O
432 C432     0.8269     3.5020     5.0974 C
433 H433    -0.0819     3.8982     5.5594 H
434 H434     1.6822     4.0717     5.4766 H
435 H435     0.9195     2.4454     5.3709 H
436 C436    -0.0468    -6.4461     3.5120 C
437 H437    -0.7008    -7.3117     3.4651 H
438 H438     0.9209    -6.5891     3.9783 H
439 H439    -1.4370    -5.2159     2.5563 H
440 C440    -0.4473    -5.2731     3.0085 C
441 C441     0.2981    -4.0352     2.9918 C
442 C442     1.5274    -3.8273     3.4756 C
443 H443    -0.2165    -3.1935     2.5304 H
444 H444     2.1205    -4.5959     3.9513 H
445 O445     2.1239    -2.5955     3.3951 O
446 C446     3.4290    -2.5812     3.9662 C
447 H447     3.8342    -1.5705     3.8630 H
448 H448     4.0925    -3.2736     3.4370 H
449 H449     3.3894    -2.8288     5.0325 H
450 C450    -1.4552    -0.7400    -4.9012 C
451 H451    -2.3630    -1.3120    -4.7342 H
452 H452    -0.9808    -0.8474    -5.8698 H
453 H453    -1.5110     0.1006    -2.9909 H
454 C454    -0.9716     0.0504    -3.9363 C
455 C455     0.2166     0.8706    -3.9994 C
456 C456     1.0568     0.9950    -5.0324 C
457 H457     0.4317     1.4405    -3.0966 H
458 H458     0.9318     0.4731    -5.9708 H
459 O459     2.1548     1.8128    -4.9607 O
460 C460     2.9209     1.8067    -6.1619 C
461 H461     3.7730     2.4788    -6.0251 H
462 H462     2.3252     2.1736    -7.0047 H
463 H463     3.3049     0.8029    -6.3729 H
464 C464    -0.1519    -5.6125     1.3585 C
465 H465    -0.4776    -5.2206     0.3996 H
466 H466     0.4449    -6.5170     1.3399 H
467 H467    -1.0919    -4.0798     2.4198 H
468 C468    -0.4887    -4.9845     2.4907 C
469 C469    -0.1378    -5.3739     3.8374 C
470 C470     0.5888    -6.4340     4.2070 C
471 H471    -0.5169    -4.7185     4.6203 H
472 H472     1.0095    -7.1435     3.5082 H
473 O473     0.8502    -6.6907     5.5282 O
474 C474     1.6382    -7.8631     5.7122 C
475 H475     1.8017    -7.9979     6.7854 H
476 H476     2.6141    -7.7559     5.2263 H
477 H477     1.1156    -8.7468     5.3303 H
478 C478    -7.8852     0.0910     8.0658 C
479 H479    -7.9187     0.2435     9.1404 H
480 H480    -8.1473    -0.8963     7.7036 H
481 H481    -7.2842     2.0571     7.7022 H
482 C482    -7.5328     1.0951     7.2551 C
483 C483    -7.4394     1.0556     5.8135 C
484 C484    -7.6871     0.0099     5.0175 C
485 H485    -7.1324     1.9900     5.3458 H
486 H486    -7.9969    -0.9593     5.3829 H
487 O487    -7.5596     0.1073     3.6560 O
488 C488    -7.8677    -1.1133     2.9889 C
489 H489    -7.7430    -0.9541     1.9140 H
490 H490    -8.9066    -1.4065     3.1751 H
491 H491    -7.1836    -1.9100     3.3004 H
492 C492    -2.3472    -3.7302    -4.9102 C
493 H493    -2.6353    -4.7619    -5.0883 H
494 H494    -1.3451    -3.5602    -4.5341 H
495 H495    -4.2011    -2.9977    -5.5314 H
496 C496    -3.2122    -2.7392    -5.1538 C
497 C497    -2.9854    -1.3237    -4.9707 C
498 C498    -1.8700    -0.7367    -4.5238 C
499 H499    -3.8279    -0.6845    -5.2312 H
500 H500    -0.9805    -1.2815    -4.2396 H
501 O501    -1.7860     0.6257    -4.3964 O
502 C502    -0.5184     1.0522    -3.9056 C
503 H503    -0.5317     2.1436    -3.8328 H
504 H504     0.2825     0.7631    -4.5947 H
505 H505    -0.3304     0.6430    -2.9071 H
506 C506    -1.9081    -5.9729    -2.4488 C
507 H507    -1.7472    -4.9905    -2.8827 H
508 H508    -2.9235    -6.3518    -2.4593 H
509 H509     0.1097    -6.2023    -1.9642 H
510 C510    -0.8800    -6.6569    -1.9341 C
511 C511    -0.9262    -7.9664    -1.3244 C
512 C512    -2.0034    -8.7416    -1.1593 C
513 H513     0.0315    -8.3429    -0.9680 H
514 H514    -2.9973    -8.4598    -1.4778 H
515 O515    -1.9087    -9.9715    -0.5609 O
516 C516    -3.1648   -10.6388    -0.4802 C
517 H517    -3.0056   -11.6056     0.0060 H
518 H518    -3.5739   -10.8197    -1.4800 H
519 H519    -3.8732   -10.0621     0.1245 H
520 C520    -4.8428    -0.2846     5.5044 C
521 H521    -5.8230     0.0563     5.8240 H
522 H522    -4.7918    -0.8067     4.5560 H
523 H523    -3.9086     0.4780     7.2088 H
524 C524    -3.7691    -0.0549     6.2687 C
525 C525    -2.4048    -0.4404     5.9883 C
526 C526    -1.9573    -1.0988     4.9137 C
527 H527    -1.6793    -0.1534     6.7482 H
528 H528    -2.5954    -1.4271     4.1052 H
529 O529    -0.6286    -1.4044     4.7699 O
530 C530    -0.3563    -2.1059     3.5602 C
531 H531     0.7173    -2.3113     3.5206 H
532 H532    -0.6225    -1.4970     2.6894 H
533 H533    -0.8906    -3.0618     3.5365 H
534 C534    -1.0185     6.4432     2.7452 C
535 H535    -0.4177     7.0573     3.4094 H
536 H536    -2.0937     6.4940     2.8714 H
537 H537     0.6598     5.6795     1.7659 H
538 C538    -0.4281     5.6716     1.8256 C
539 C539    -1.0801     4.8023     0.8729 C
540 C540    -2.3950     4.6044     0.7298 C
541 H541    -0.4084     4.2593     0.2095 H
542 H542    -3.1428     5.0945     1.3375 H
543 O543    -2.8852     3.7463    -0.2204 O
544 C544    -4.3081     3.6753    -0.2116 C
545 H545    -4.6184     2.9751    -0.9926 H
546 H546    -4.7475     4.6540    -0.4326 H
547 H547    -4.6726     3.3007     0.7510 H
548 C548     3.4941     3.4177    -0.3525 C
549 H549     4.3954     3.5062     0.2467 H
550 H550     2.7048     4.1343    -0.1573 H
551 H551     4.2360     1.7784    -1.4115 H
552 C552     3.3948     2.4582    -1.2795 C
553 C553     2.2714     2.2077    -2.1534 C
554 C554     1.1199     2.8861    -2.2014 C
555 H555     2.3983     1.3710    -2.8389 H
556 H556     0.8966     3.7306    -1.5644 H
557 O557     0.1287     2.5421    -3.0839 O
558 C558    -1.0148     3.3851    -2.9780 C
559 H559    -1.7547     3.0479    -3.7097 H
560 H560    -0.7542     4.4243    -3.2062 H
561 H561    -1.4602     3.3126    -1.9799 H
562 C562     1.1601    -0.5758     7.9908 C
563 H563     0.9074    -0.2851     9.0061 H
564 H564     0.7457     0.0280     7.1918 H
565 H565     2.3227    -2.1870     8.6321 H
566 C566     1.9482    -1.6342     7.7711 C
567 C567     2.3754    -2.1479     6.4896 C
568 C568     2.0647    -1.6638     5.2824 C
569 H569     3.0196    -3.0248     6.5362 H
570 H570     1.4337    -0.7994     5.1292 H
571 O571     2.5400    -2.2499     4.1378 O
572 C572     2.0959    -1.5862     2.9581 C
573 H573     2.5151    -2.1106     2.0946 H
574 H574     2.4517    -0.5504     2.9375 H
575 H575     1.0036    -1.6171     2.8824 H
576 C576    -1.6881     3.0978     3.6980 C
577 H577    -2.5854     3.7095     3.6977 H
578 H578    -1.8225     2.0325     3.5514 H
579 H579    -0.4427     4.7435     4.0144 H
580 C580    -0.4888     3.6640     3.8736 C
581 C581     0.7920     2.9951     3.8998 C
582 C582     1.0212     1.6857     3.7538 C
583 H583     1.6496     3.6477     4.0568 H
584 H584     0.2396     0.9562     3.5937 H
585 O585     2.2937     1.1776     3.7997 O
586 C586     2.3252    -0.2358     3.6233 C
587 H587     3.3682    -0.5614     3.6725 H
588 H588     1.9236    -0.5143     2.6430 H
589 H589     1.7695    -0.7396     4.4216 H
590 C590     5.2521    -4.9055     1.6967 C
591 H591     5.4483    -5.9736     1.6876 H
592 H592     5.9891    -4.2771     2.1829 H
593 H593     3.4541    -5.1231     0.6580 H
594 C594     4.1436    -4.4209     1.1257 C
595 C595     3.7387    -3.0356     1.0526 C
596 C596     4.3939    -1.9769     1.5408 C
597 H597     2.7944    -2.8578     0.5398 H
598 H598     5.3368    -2.0471     2.0649 H
599 O599     3.8959    -0.7071     1.4022 O
600 C600     4.7404     0.2788     1.9891 C
601 H601     4.2766     1.2577     1.8372 H
602 H602     5.7238     0.2854     1.5067 H
603 H603     4.8438     0.1106     3.0666 H
604 C604    -3.2187     0.7899     3.2587 C
605 H605    -3.9303     0.1685     2.7232 H
606 H606    -2.1827     0.4721     3.2425 H
607 H607    -4.6946     2.1371     3.8637 H
608 C608    -3.6341     1.8894     3.8978 C
609 C609    -2.8200     2.8160     4.6508 C
610 C610    -1.4994     2.7507     4.8514 C
611 H611    -3.3617     3.6504     5.0941 H
612 H612    -0.8727     1.9642     4.4549 H
613 O613    -0.8451     3.7018     5.5909 O
614 C614     0.5544     3.4532     5.6867 C
615 H615     1.0010     4.2505     6.2879 H
616 H616     1.0205     3.4674     4.6956 H
617 H617     0.7461     2.4973     6.1861 H
618 C618    -0.9321    -5.5173    -5.3672 C
619 H619     0.0008    -6.0519    -5.2150 H
620 H620    -1.1766    -4.7455    -4.6467 H
621 H621    -1.3986    -6.6121    -7.0827 H
622 C622    -1.7196    -5.8217    -6.4050 C
623 C623    -2.9834    -5.2090    -6.7453 C
624 C624    -3.6047    -4.2234    -6.0887 C
625 H625    -3.4643    -5.6090    -7.6369 H
626 H626    -3.2112    -3.7596    -5.1950 H
627 O627    -4.8084    -3.7298    -6.5212 O
628 C628    -5.3033    -2.6863    -5.6872 C
629 H629    -6.2599    -2.3486    -6.0965 H
630 H630    -4.6134    -1.8355    -5.6783 H
631 H631    -5.4745    -3.0508    -4.6685 H
632 C632    -3.3968    -2.8091    -5.3524 C
633 H633    -4.3214    -2.4874    -4.8824 H
634 H634    -2.6074    -3.1525    -4.6940 H
635 H635    -4.1142    -2.4113    -7.2723 H
636 C636    -3.2707    -2.7708    -6.6837 C
637 C637    -2.1147    -3.1609    -7.4582 C
638 C638    -0.9537    -3.6334    -6.9923 C
639 H639    -2.2233    -3.0497    -8.5362 H
640 H640    -0.7467    -3.7805    -5.9414 H
641 O641     0.0694    -3.9681    -7.8413 O
642 C642     1.2181    -4.4505    -7.1505 C
643 H643     1.9838    -4.6941    -7.8927 H
644 H644     0.9806    -5.3610    -6.5897 H
645 H645     1.6200    -3.6825    -6.4808 H
646 C646    -1.6811     2.2046     8.9935 C
647 H647    -1.6141     2.1989    10.0773 H
648 H648    -1.1571     1.4154     8.4671 H
649 H649    -2.8823     3.9122     8.9743 H
650 C650    -2.3854     3.1550     8.3686 C
651 C651    -2.5717     3.3022     6.9431 C
652 C652    -2.0765     2.5179     5.9797 C
653 H653    -3.1854     4.1506     6.6437 H
654 H654    -1.4574     1.6528     6.1723 H
655 O655    -2.3312     2.7707     4.6565 O
656 C656    -1.7151     1.8225     3.7899 C
657 H657    -1.9642     2.0917     2.7594 H
658 H658    -2.0960     0.8139     3.9837 H
659 H659    -0.6254     1.8474     3.8982 H
660 C660    -4.9013     2.2204     2.2073 C
661 H661    -4.2745     2.4561     3.0622 H
662 H662    -5.5262     1.3386     2.2875 H
663 H663    -4.2213     3.8706     1.1240 H
664 C664    -4.8793     3.0022     1.1220 C
665 C665    -5.6471     2.8276    -0.0899 C
666 C666    -6.5237     1.8533    -0.3560 C
667 H667    -5.4775     3.5831    -0.8558 H
668 H668    -6.7620     1.0581     0.3364 H
669 O669    -7.1893     1.8039    -1.5535 O
670 C670    -8.0761     0.6924    -1.6411 C
671 H671    -8.5653     0.7239    -2.6190 H
672 H672    -8.8495     0.7501    -0.8675 H
673 H673    -7.5256    -0.2513    -1.5621 H
674 C674    -8.1023    -1.4190     2.0710 C
675 H675    -7.9899    -0.3421     1.9874 H
676 H676    -8.1073    -1.8338     3.0722 H
677 H677    -8.2113    -1.6714     0.0013 H
678 C678    -8.2265    -2.1693     0.9704 C
679 C679    -8.3830    -3.6047     0.9108 C
680 C680    -8.4335    -4.4540     1.9426 C
681 H681    -8.4671    -4.0179    -0.0933 H
682 H682    -8.3594    -4.1446     2.9758 H
683 O683    -8.5861    -5.8023     1.7464 O
684 C684    -8.6163    -6.5331     2.9689 C
685 H685    -8.7397    -7.5931     2.7284 H
686 H686    -9.4638    -6.2200     3.5882 H
687 H687    -7.6760    -6.4121     3.5175 H
688 C688    -2.6570     3.0928    -4.4404 C
689 H689    -3.5129     3.7590    -4.4936 H
690 H690    -2.6951     2.3063    -3.6957 H
691 H691    -1.6634     4.0790    -5.9894 H
692 C692    -1.6208     3.2623    -5.2694 C
693 C693    -0.4150     2.4677    -5.3263 C
694 C694    -0.1066     1.4141    -4.5625 C
695 H695     0.3067     2.7786    -6.0803 H
696 H696    -0.7538     1.0275    -3.7877 H
697 O697     1.0792     0.7445    -4.7208 O
698 C698     1.2176    -0.3450    -3.8135 C
699 H699     2.1826    -0.8243    -4.0023 H
700 H700     0.4278    -1.0870    -3.9735 H
701 H701     1.2061     0.0085    -2.7768 H
702 C702    -6.9233     1.1665    -3.0841 C
703 H703    -6.8884     0.5617    -2.1829 H
704 H704    -7.2427     0.6708    -3.9935 H
705 H705    -6.2719     2.8791    -2.0833 H
706 C706    -6.5817     2.4592    -3.0398 C
707 C707    -6.5742     3.3938    -4.1419 C
708 C708    -6.9067     3.1446    -5.4131 C
709 H709    -6.2605     4.4050    -3.8866 H
710 H710    -7.2304     2.1759    -5.7674 H
711 O711    -6.8553     4.1281    -6.3669 O
712 C712    -7.2471     3.6620    -7.6549 C
713 H713    -7.1795     4.4999    -8.3548 H
714 H714    -8.2835     3.3077    -7.6415 H
715 H715    -6.5760     2.8689    -8.0020 H
716 C716    -1.1069    -6.2862    -0.7372 C
717 H717    -1.1321    -6.6588    -1.7569 H
718 H718    -1.7367    -5.4333    -0.5125 H
719 H719     0.2778    -7.7284    -0.1356 H
720 C720    -0.3246    -6.8750     0.1744 C
721 C721    -0.1782    -6.5036     1.5633 C
722 C722    -0.7958    -5.5027     2.2000 C
723 H723     0.5153    -7.1192     2.1344 H
724 H724    -1.5007    -4.8358     1.7235 H
725 O725    -0.5657    -5.2566     3.5289 O
726 C726    -1.3179    -4.1503     4.0187 C
727 H727    -1.0801    -4.0200     5.0784 H
728 H728    -2.3929    -4.3406     3.9282 H
729 H729    -1.0462    -3.2306     3.4894 H
730 C730    -5.8719    -8.2835    -6.2210 C
731 H731    -5.6937    -8.7461    -7.1871 H
732 H732    -6.8224    -8.4951    -5.7453 H
733 H733    -4.0121    -7.3345    -6.2177 H
734 C734    -4.9412    -7.4949    -5.6716 C
735 C735    -5.0230    -6.8094    -4.4020 C
736 C736    -6.0425    -6.8331    -3.5368 C
737 H737    -4.1483    -6.2150    -4.1419 H
738 H738    -6.9535    -7.3914    -3.7015 H
739 O739    -5.9916    -6.1328    -2.3592 O
740 C740    -7.1735    -6.2878    -1.5790 C
741 H741    -7.0550    -5.7026    -0.6625 H
742 H742    -7.3207    -7.3370    -1.3006 H
743 H743    -8.0481    -5.9087    -2.1186 H
744 C744    -1.0350     8.3495     3.9776 C
745 H745    -1.3778     9.3426     4.2522 H
746 H746    -1.5875     7.5113     4.3858 H
747 H747     0.5214     9.0993     2.8052 H
748 C748     0.0227     8.2026     3.1717 C
749 C749     0.6005     6.9592     2.7150 C
750 C750     0.1885     5.7217     3.0106 C
751 H751     1.4641     7.0654     2.0600 H
752 H752    -0.6569     5.5099     3.6503 H
753 O753     0.8304     4.6198     2.5072 O
754 C754     0.2395     3.3975     2.9392 C
755 H755     0.8050     2.5718     2.4977 H
756 H756    -0.7985     3.3253     2.5970 H
757 H757     0.2903     3.3051     4.0295 H
758 C758     2.6613    -3.8952    -0.9985 C
759 H759     2.3136    -4.9098    -0.8289 H
760 H760     3.5113    -3.5652    -0.4127 H
761 H761     1.1991    -3.5261    -2.4425 H
762 C762     2.0473    -3.1155    -1.8956 C
763 C763     2.3845    -1.7522    -2.2367 C
764 C764     3.3724    -1.0126    -1.7215 C
765 H765     1.7523    -1.2978    -2.9983 H
766 H766     4.0537    -1.3706    -0.9622 H
767 O767     3.5855     0.2767    -2.1362 O
768 C768     4.6828     0.8921    -1.4679 C
769 H769     4.7866     1.9111    -1.8518 H
770 H770     5.6139     0.3517    -1.6703 H
771 H771     4.4995     0.9479    -0.3894 H
772 C772    -4.6176    -9.2710    -2.5550 C
773 H773    -4.0053   -10.1480    -2.3675 H
774 H774    -5.6850    -9.4315    -2.6521 H
775 H775    -2.9683    -7.9908    -2.5453 H
776 C776    -4.0498    -8.0639    -2.6559 C
777 C777    -4.7192    -6.8069    -2.9014 C
778 C778    -6.0309    -6.6119    -3.0741 C
779 H779    -4.0649    -5.9374    -2.9467 H
780 H780    -6.7622    -7.4077    -3.0473 H
781 O781    -6.5393    -5.3590    -3.3011 O
782 C782    -7.9553    -5.3634    -3.4582 C
783 H783    -8.2809    -4.3341    -3.6345 H
784 H784    -8.4461    -5.7288    -2.5497 H
785 H785    -8.2487    -5.9697    -4.3220 H
786 C786     5.3275     1.5693    -7.4226 C
787 H787     6.0645     1.5405    -8.2196 H
788 H788     4.6905     0.6992    -7.3141 H
789 H789     5.9161     3.4758    -6.8079 H
790 C790     5.2363     2.6431    -6.6300 C
791 C791     4.3161     2.8369    -5.5326 C
792 C792     3.3829     1.9814    -5.1018 C
793 H793     4.4109     3.7902    -5.0145 H
794 H794     3.2094     1.0118    -5.5474 H
795 O795     2.5697     2.2910    -4.0423 O
796 C796     1.6447     1.2505    -3.7402 C
797 H797     1.0369     1.5724    -2.8897 H
798 H798     2.1710     0.3320    -3.4590 H
799 H799     0.9777     1.0648    -4.5890 H
800 C800    -7.6533     6.8688    -0.4007 C
801 H801    -8.0212     7.8881    -0.3313 H
802 H802    -7.6471     6.4172    -1.3859 H
803 H803    -7.2749     6.7569     1.6495 H
804 C804    -7.2349     6.2291     0.6972 C
805 C805    -6.7206     4.8807     0.7738 C
806 C806    -6.5655     4.0180    -0.2363 C
807 H807    -6.4345     4.5525     1.7721 H
808 H808    -6.8191     4.2466    -1.2620 H
809 O809    -6.0628     2.7600    -0.0255 O
810 C810    -5.9761     1.9973    -1.2256 C
811 H811    -5.5688     1.0136    -0.9747 H
812 H812    -5.3009     2.4764    -1.9428 H
813 H813    -6.9677     1.8562    -1.6690 H
814 C814    -4.9106     2.3152     2.1409 C
815 H815    -5.4753     2.4173     1.2190 H
816 H816    -4.2854     3.1530     2.4267 H
817 H817    -5.6572     0.4000     2.5064 H
818 C818    -5.0047     1.1950     2.8661 C
819 C819    -4.3239     0.9040     4.1072 C
820 C820    -3.4722     1.6978     4.7652 C
821 H821    -4.5432    -0.0732     4.5351 H
822 H822    -3.1897     2.6841     4.4247 H
823 O823    -2.8918     1.2975     5.9410 O
824 C824    -2.0181     2.2834     6.4834 C
825 H825    -1.5981     1.8907     7.4138 H
826 H826    -2.5658     3.2034     6.7145 H
827 H827    -1.1925     2.4924     5.7945 H
828 C828     4.3771    -0.9089     3.3565 C
829 H829     4.1926    -1.5382     4.2220 H
830 H830     5.2782    -1.1098     2.7889 H
831 H831     2.6306     0.1946     3.6585 H
832 C832     3.5129     0.0599     3.0335 C
833 C833     3.6122     0.9770     1.9210 C
834 C834     4.5850     1.0314     1.0050 C
835 H835     2.7953     1.6927     1.8393 H
836 H836     5.4377     0.3668     0.9982 H
837 O837     4.5581     1.9571    -0.0060 O
838 C838     5.6819     1.8508    -0.8751 C
839 H839     5.5869     2.6179    -1.6490 H
840 H840     5.7045     0.8705    -1.3633 H
841 H841     6.6144     2.0274    -0.3282 H
842 C842     2.4973     1.2919    -3.1108 C
843 H843     2.1910     0.7641    -4.0091 H
844 H844     1.7556     1.9258    -2.6391 H
845 H845     4.4230     0.4872    -3.1713 H
846 C846     3.7391     1.1446    -2.6353 C
847 C847     4.2992     1.7722    -1.4602 C
848 C848     3.6839     2.6176    -0.6265 C
849 H849     5.3363     1.5142    -1.2500 H
850 H850     2.6578     2.9357    -0.7475 H
851 O851     4.3345     3.1447     0.4591 O
852 C852     3.5081     4.0209     1.2199 C
853 H853     4.0961     4.3969     2.0622 H
854 H854     2.6387     3.4869     1.6185 H
855 H855     3.1877     4.8760     0.6150 H
856 C856    -6.3341     0.5582    -4.3037 C
857 H857    -6.5148     1.5803    -3.9845 H
858 H858    -5.4979     0.3957    -4.9736 H
859 H859    -7.9448    -0.1799    -3.1991 H
860 C860    -7.1252    -0.4305    -3.8719 C
861 C861    -7.0197    -1.8337    -4.2008 C
862 C862    -6.1131    -2.4094    -4.9977 C
863 H863    -7.7703    -2.4732    -3.7383 H
864 H864    -5.3286    -1.8635    -5.5028 H
865 O865    -6.1251    -3.7610    -5.2275 O
866 C866    -5.0802    -4.1765    -6.1022 C
867 H867    -5.1578    -5.2596    -6.2341 H
868 H868    -4.0990    -3.9521    -5.6699 H
869 H869    -5.1834    -3.7021    -7.0840 H
870 C870    -4.9485     3.3169     6.7356 C
871 H871    -5.6646     3.3183     7.5520 H
872 H872    -5.0618     2.5414     5.9871 H
873 H873    -3.9417     4.9877     7.4799 H
874 C874    -3.9843     4.2429     6.6858 C
875 C875    -2.9612     4.3779     5.6741 C
876 C876    -2.7843     3.6043     4.5976 C
877 H877    -2.2703     5.2062     5.8249 H
878 H878    -3.4146     2.7591     4.3587 H
879 O879    -1.7669     3.8434     3.7102 O
880 C880    -1.7491     2.9100     2.6340 C
881 H881    -0.9147     3.1669     1.9750 H
882 H882    -2.6763     2.9681     2.0537 H
883 H883    -1.5932     1.8914     3.0054 H
884 C884     6.6526    -1.4681    -3.4554 C
885 H885     7.0568    -1.6141    -4.4526 H
886 H886     5.8950    -0.7013    -3.3422 H
887 H887     7.8554    -2.9658    -2.6374 H
888 C888     7.0907    -2.2161    -2.4365 C
889 C889     6.6581    -2.1469    -1.0593 C
890 C890     5.7394    -1.3236    -0.5429 C
891 H891     7.1465    -2.8507    -0.3868 H
892 H892     5.1990    -0.5904    -1.1251 H
893 O893     5.4202    -1.3616     0.7899 O
894 C894     4.4219    -0.4077     1.1408 C
895 H895     4.2245    -0.5007     2.2126 H
896 H896     3.4893    -0.6046     0.6009 H
897 H897     4.7711     0.6114     0.9424 H
898 C898   -11.6011    -4.8452     4.4015 C
899 H899   -12.5137    -4.8996     4.9875 H
900 H900   -10.8363    -5.5819     4.6180 H
901 H901   -12.2782    -3.1989     3.3105 H
902 C902   -11.4595    -3.9012     3.4642 C
903 C903   -10.3159    -3.6950     2.6050 C
904 C904    -9.1842    -4.4072     2.5837 C
905 H905   -10.4076    -2.8638     1.9072 H
906 H906    -8.9956    -5.2495     3.2347 H
907 O907    -8.1699    -4.1038     1.7126 O
908 C908    -7.0534    -4.9784     1.8470 C
909 H909    -6.2928    -4.6724     1.1229 H
910 H910    -7.3409    -6.0124     1.6278 H
911 H911    -6.6214    -4.9059     2.8510 H
912 C912    -9.3785    -3.0774    -4.6725 C
913 H913    -9.6106    -4.1203    -4.4786 H
914 H914    -9.8198    -2.6346    -5.5578 H
915 H915    -8.1797    -2.9214    -2.9702 H
916 C916    -8.5820    -2.3998    -3.8382 C
917 C917    -8.1788    -1.0168    -3.9536 C
918 C918    -8.5247    -0.1533    -4.9145 C
919 H919    -7.5222    -0.6605    -3.1611 H
920 H920    -9.1705    -0.4083    -5.7431 H
921 O921    -8.0692     1.1397    -4.9055 O
922 C922    -8.5502     1.8969    -6.0122 C
923 H923    -8.1448     2.9098    -5.9331 H
924 H924    -9.6435     1.9614    -5.9934 H
925 H925    -8.2087     1.4627    -6.9581 H
926 C926    -6.5051    -9.9072    -3.5739 C
927 H927    -6.0714   -10.8534    -3.8835 H
928 H928    -5.8137    -9.1169    -3.3056 H
929 H929    -8.4576   -10.6034    -3.8228 H
930 C930    -7.8339    -9.7571    -3.5365 C
931 C931    -8.5635    -8.5710    -3.1501 C
932 C932    -8.0499    -7.4004    -2.7573 C
933 H933    -9.6479    -8.6632    -3.1907 H
934 H934    -6.9887    -7.2077    -2.6836 H
935 O935    -8.8595    -6.3479    -2.4160 O
936 C936    -8.1211    -5.1935    -2.0265 C
937 H937    -8.8339    -4.4040    -1.7714 H
938 H938    -7.4934    -4.8372    -2.8505 H
939 H939    -7.5092    -5.4034    -1.1425 H
940 C940    -4.9665     2.0120    -1.6851 C
941 H941    -4.8600     2.3760    -0.6676 H
942 H942    -5.9153     1.5572    -1.9449 H
943 H943    -3.0342     2.6050    -2.2085 H
944 C944    -3.9551     2.1346    -2.5521 C
945 C945    -3.9368     1.7049    -3.9318 C
946 C946    -4.9256     1.1042    -4.6026 C
947 H947    -3.0070     1.9016    -4.4636 H
948 H948    -5.8854     0.8656    -4.1660 H
949 O949    -4.7771     0.7462    -5.9176 O
950 C950    -5.9414     0.1207    -6.4493 C
951 H951    -5.7438    -0.1328    -7.4948 H
952 H952    -6.7982     0.8023    -6.4165 H
953 H953    -6.1674    -0.8043    -5.9078 H
954 C954    -5.0673    -6.4169     2.6582 C
955 H955    -5.4697    -7.1647     1.9814 H
956 H956    -5.6274    -6.2273     3.5664 H
957 H957    -3.4309    -6.0293     1.4208 H
958 C958    -3.9315    -5.7781     2.3554 C
959 C959    -3.2688    -4.7639     3.1432 C
960 C960    -3.6643    -4.2722     4.3224 C
961 H961    -2.3496    -4.3716     2.7105 H
962 H962    -4.5602    -4.5946     4.8343 H
963 O963    -2.9383    -3.3053     4.9686 O
964 C964    -3.5255    -2.9163     6.2069 C
965 H965    -2.8912    -2.1474     6.6573 H
966 H966    -3.5783    -3.7660     6.8961 H
967 H967    -4.5220    -2.4903     6.0477 H
968 C968    -6.4504    -5.5557     1.6095 C
969 H969    -6.3216    -4.4839     1.4918 H
970 H970    -7.3084    -6.0018     1.1201 H
971 H971    -4.7378    -5.7354     2.7900 H
972 C972    -5.5734    -6.2628     2.3310 C
973 C973    -5.6025    -7.6857     2.5822 C
974 C974    -6.5097    -8.5641     2.1421 C
975 H975    -4.7875    -8.0615     3.1992 H
976 H976    -7.3546    -8.2923     1.5248 H
977 O977    -6.4200    -9.8958     2.4555 O
978 C978    -7.4798   -10.6631     1.8920 C
979 H979    -7.3373   -11.7070     2.1860 H
980 H980    -7.4608   -10.6080     0.7982 H
981 H981    -8.4494   -10.3270     2.2753 H
982 C982     3.9922    -4.6044    -1.3357 C
983 H983     4.1233    -5.4380    -2.0193 H
984 H984     4.6763    -3.7709    -1.4441 H
985 H985     2.3775    -5.5140    -0.3741 H
986 C986     3.0222    -4.6366    -0.4149 C
987 C987     2.7177    -3.6159     0.5619 C
988 C988     3.3465    -2.4478     0.7305 C
989 H989     1.8818    -3.8441     1.2216 H
990 H990     4.1857    -2.1282     0.1286 H
991 O991     2.9541    -1.5633     1.7018 O
992 C992     3.7489    -0.3811     1.7186 C
993 H993     3.3751     0.2686     2.5152 H
994 H994     3.6654     0.1570     0.7682 H
995 H995     4.7964    -0.6198     1.9324 H
996 C996    -3.7172    -5.1798     4.9400 C
997 H997    -2.7677    -5.3554     5.4369 H
998 H998    -4.4153    -6.0083     4.9124 H
999 H999    -3.2232    -3.2063     4.4703 H
1000 C1000    -3.9813    -3.9856     4.3979 C
1001 C1001    -5.1883    -3.5933     3.7066 C
1002 C1002    -6.2684    -4.3481     3.4780 C
1003 H1003    -5.1972    -2.5676     3.3408 H
1004 H1004    -6.3581    -5.3763     3.7995 H
1005 O1005    -7.3539    -3.8498     2.8050 O
1006 C1006    -8.3981    -4.8088     2.6649 C
1007 H1007    -9.2220    -4.3374     2.1213 H
1008 H1008    -8.7696    -5.1252     3.6456 H
1009 H1009    -8.0559    -5.6746     2.0877 H
1010 C1010    -3.0583     0.0733    -6.0135 C
1011 H1011    -3.6328     0.8592    -6.4947 H
1012 H1012    -2.8479    -0.8104    -6.6045 H
1013 H1013    -2.9002     1.1419    -4.2268 H
1014 C1014    -2.6451     0.2207    -4.7497 C
1015 C1015    -1.8774    -0.7243    -3.9712 C
1016 C1016    -1.4351    -1.9233    -4.3654 C
1017 H1017    -1.6453    -0.4045    -2.9563 H
1018 H1018    -1.6121    -2.3314    -5.3507 H
1019 O1019    -0.7125    -2.7268    -3.5217 O
1020 C1020    -0.3356    -3.9591    -4.1291 C
1021 H1021     0.2334    -4.5391    -3.3968 H
1022 H1022     0.3040    -3.7834    -5.0008 H
1023 H1023    -1.2204    -4.5385    -4.4143 H
1024 C1024     6.4778     0.6151    -2.2519 C
1025 H1025     6.9890     1.2705    -2.9507 H
1026 H1026     5.3998     0.7094    -2.1922 H
1027 H1027     8.2577    -0.2862    -1.6364 H
1028 C1028     7.1754    -0.2563    -1.5145 C
1029 C1029     6.6495    -1.1911    -0.5460 C
1030 C1030     5.3681    -1.3624    -0.2036 C
1031 H1031     7.3955    -1.8134    -0.0538 H
1032 H1032     4.5537    -0.7958    -0.6330 H
1033 O1033     5.0017    -2.2907     0.7364 O
1034 C1034     3.5948    -2.3184     0.9587 C
1035 H1035     3.3851    -3.0790     1.7163 H
1036 H1036     3.0616    -2.5904     0.0413 H
1037 H1037     3.2415    -1.3520     1.3344 H
1038 C1038    -3.2932     1.8758     2.6912 C
1039 H1039    -4.1392     1.1968     2.7408 H
1040 H1040    -3.5070     2.9048     2.4266 H
1041 H1041    -1.9313     0.3803     3.2087 H
1042 C1042    -2.0584     1.4311     2.9501 C
1043 C1043    -0.8354     2.2008     2.9273 C
1044 C1044    -0.7061     3.5013     2.6436 C
1045 H1045     0.0663     1.6407     3.1708 H
1046 H1046    -1.5380     4.1435     2.3900 H
1047 O1047     0.5207     4.1131     2.6577 O
1048 C1048     0.4456     5.4973     2.3287 C
1049 H1049     1.4581     5.9100     2.3617 H
1050 H1050    -0.1698     6.0370     3.0566 H
1051 H1051     0.0505     5.6354     1.3165 H
1052 C1052    -1.8074     1.4234     3.6385 C
1053 H1053    -0.7371     1.5361     3.7828 H
1054 H1054    -2.4022     2.3290     3.6627 H
1055 H1055    -1.6649    -0.6494     3.4326 H
1056 C1056    -2.3350     0.2097     3.4425 C
1057 C1057    -3.7296    -0.1082     3.2361 C
1058 C1058    -4.7556     0.7489     3.2018 C
1059 H1059    -3.9452    -1.1664     3.0953 H
1060 H1060    -4.6471     1.8168     3.3303 H
1061 O1061    -6.0391     0.3129     2.9963 O
1062 C1062    -6.9851     1.3781     2.9944 C
1063 H1063    -7.9778     0.9509     2.8257 H
1064 H1064    -6.7728     2.0851     2.1851 H
1065 H1065    -6.9920     1.8936     3.9608 H
1066 C1066    -3.9549    -1.1987     3.6422 C
1067 H1067    -4.9886    -1.4562     3.4315 H
1068 H1068    -3.3463    -1.9633     4.1108 H
1069 H1069    -4.1663     0.7239     2.8562 H
1070 C1070    -3.4864     0.0137     3.3256 C
1071 C1071    -2.1456     0.5093     3.5380 C
1072 C1072    -1.1206    -0.1485     4.0903 C
1073 H1073    -1.9740     1.5318     3.2046 H
1074 H1074    -1.1880    -1.1649     4.4525 H
1075 O1075     0.1083     0.4421     4.2338 O
1076 C1076     1.0631    -0.4223     4.8428 C
1077 H1077     2.0104     0.1189     4.9211 H
1078 H1078     1.2264    -1.3149     4.2293 H
1079 H1079     0.7438    -0.7047     5.8519 H
1080 C1080    -0.2992    -2.4572    -5.1395 C
1081 H1081    -1.0367    -2.8459    -5.8354 H
1082 H1082     0.4951    -3.1317    -4.8416 H
1083 H1083    -1.2265    -0.5892    -5.0405 H
1084 C1084    -0.3956    -1.2008    -4.6902 C
1085 C1085     0.4974    -0.5373    -3.7678 C
1086 C1086     1.5877    -1.0522    -3.1893 C
1087 H1087     0.2347     0.4931    -3.5326 H
1088 H1088     1.9324    -2.0631    -3.3568 H
1089 O1089     2.3526    -0.3097    -2.3272 O
1090 C1090     3.4669    -1.0374    -1.8191 C
1091 H1091     4.0229    -0.3803    -1.1440 H
1092 H1092     4.1358    -1.3414    -2.6315 H
1093 H1093     3.1334    -1.9121    -1.2504 H
1094 C1094    -3.8128     1.2285     2.7776 C
1095 H1095    -4.1077     0.1881     2.6785 H
1096 H1096    -4.4054     1.9582     2.2382 H
1097 H1097    -2.2209     0.7631     4.0459 H
1098 C1098    -2.7627     1.5600     3.5372 C
1099 C1099    -2.2449     2.8888     3.7712 C
1100 C1100    -2.7162     4.0372     3.2737 C
1101 H1101    -1.3765     2.9362     4.4268 H
1102 H1102    -3.5715     4.0971     2.6152 H
1103 O1103    -2.1276     5.2377     3.5771 O
1104 C1104    -2.7771     6.3395     2.9496 C
1105 H1105    -2.2515     7.2540     3.2395 H
1106 H1106    -3.8170     6.4196     3.2841 H
1107 H1107    -2.7318     6.2477     1.8590 H
1108 C1108    -5.2282    -2.4174     4.2650 C
1109 H1109    -5.4885    -3.1349     3.4926 H
1110 H1110    -4.7256    -2.8053     5.1433 H
1111 H1111    -6.0347    -0.8170     3.1938 H
1112 C1112    -5.5281    -1.1231     4.1086 C
1113 C1113    -5.2521    -0.0494     5.0358 C
1114 C1114    -4.6458    -0.1456     6.2239 C
1115 H1115    -5.5825     0.9362     4.7111 H
1116 H1116    -4.2816    -1.0766     6.6356 H
1117 O1117    -4.4449     0.9590     7.0106 O
1118 C1118    -3.7842     0.6468     8.2336 C
1119 H1119    -3.6620     1.5743     8.8004 H
1120 H1120    -2.7906     0.2270     8.0425 H
1121 H1121    -4.3837    -0.0465     8.8334 H
1122 C1122   -11.3966     2.9154     0.1452 C
1123 H1123   -12.4308     3.1457     0.3832 H
1124 H1124   -10.7254     2.7593     0.9816 H
1125 H1125   -11.7425     3.0066    -1.9118 H
1126 C1126   -11.0024     2.8354    -1.1307 C
1127 C1127    -9.6720     2.5403    -1.6118 C
1128 C1128    -8.5844     2.2914    -0.8745 C
1129 H1129    -9.5670     2.5239    -2.6957 H
1130 H1130    -8.5839     2.2841     0.2066 H
1131 O1131    -7.3743     2.0239    -1.4608 O
1132 C1132    -6.3442     1.7865    -0.5057 C
1133 H1133    -5.4172     1.5822    -1.0492 H
1134 H1134    -6.5805     0.9133     0.1119 H
1135 H1135    -6.1867     2.6691     0.1236 H
1136 C1136    -2.8154     6.6215     0.6569 C
1137 H1137    -3.6759     7.1123     0.2121 H
1138 H1138    -2.2065     6.0115    -0.0002 H
1139 H1139    -3.2117     7.4140     2.5474 H
1140 C1140    -2.5475     6.7830     1.9576 C
1141 C1141    -1.4494     6.2031     2.6968 C
1142 C1142    -0.4942     5.3965     2.2219 C
1143 H1143    -1.4158     6.4649     3.7534 H
1144 H1144    -0.4389     5.0783     1.1902 H
1145 O1145     0.4971     4.9128     3.0361 O
1146 C1146     1.4148     4.0733     2.3413 C
1147 H1147     2.1694     3.7305     3.0551 H
1148 H1148     1.9219     4.6276     1.5442 H
1149 H1149     0.9045     3.1948     1.9316 H
1150 C1150    -0.9644     1.9162     2.7634 C
1151 H1151    -0.1661     1.1925     2.8982 H
1152 H1152    -0.7604     2.7521     2.1044 H
1153 H1153    -2.2543     0.8849     4.0407 H
1154 C1154    -2.1323     1.7543     3.3955 C
1155 C1155    -3.2866     2.6208     3.3230 C
1156 C1156    -3.4064     3.7469     2.6115 C
1157 H1157    -4.1398     2.3028     3.9204 H
1158 H1158    -2.6190     4.1466     1.9879 H
1159 O1159    -4.5647     4.4800     2.6313 O
1160 C1160    -4.4911     5.6414     1.8094 C
1161 H1161    -5.4472     6.1682     1.8790 H
1162 H1162    -4.3251     5.3667     0.7621 H
1163 H1163    -3.7010     6.3151     2.1582 H
1164 C1164    -6.8804     1.3678     1.3888 C
1165 H1165    -6.4013     1.4954     0.4227 H
1166 H1166    -6.9138     0.3611     1.7889 H
1167 H1167    -7.3187     3.4023     1.5550 H
1168 C1168    -7.3950     2.4240     2.0285 C
1169 C1169    -8.0603     2.4229     3.3114 C
1170 C1170    -8.2875     1.3679     4.1013 C
1171 H1171    -8.4059     3.3979     3.6523 H
1172 H1172    -7.9849     0.3599     3.8541 H
1173 O1173    -8.9343     1.5055     5.3023 O
1174 C1174    -9.0776     0.2670     5.9916 C
1175 H1175    -9.5995     0.4604     6.9332 H
1176 H1176    -8.0978    -0.1644     6.2236 H
1177 H1177    -9.6766    -0.4376     5.4046 H
1178 C1178    -8.5290     3.7258    -6.2896 C
1179 H1179    -9.1574     4.0280    -7.1221 H
1180 H1180    -8.6455     2.7090    -5.9329 H
1181 H1181    -7.6087     5.5962    -6.1718 H
1182 C1182    -7.6625     4.5920    -5.7524 C
1183 C1183    -6.7617     4.3480    -4.6490 C
1184 C1184    -6.6234     3.2122    -3.9567 C
1185 H1185    -6.1372     5.1948    -4.3680 H
1186 H1186    -7.1952     2.3168    -4.1567 H
1187 O1187    -5.7254     3.1134    -2.9255 O
1188 C1188    -5.7303     1.8251    -2.3172 C
1189 H1189    -4.9924     1.8276    -1.5098 H
1190 H1190    -5.4465     1.0528    -3.0403 H
1191 H1191    -6.7121     1.6028    -1.8854 H
1192 C1192    -5.1522    -3.5956     5.5037 C
1193 H1193    -4.0971    -3.6922     5.7419 H
1194 H1194    -5.8501    -3.6890     6.3276 H
1195 H1195    -4.7711    -3.2914     3.4736 H
1196 C1196    -5.5387    -3.3721     4.2426 C
1197 C1197    -6.8937    -3.2203     3.7635 C
1198 C1198    -8.0163    -3.2743     4.4882 C
1199 H1199    -6.9868    -3.0435     2.6928 H
1200 H1200    -8.0311    -3.4446     5.5557 H
1201 O1201    -9.2467    -3.1128     3.9055 O
1202 C1202   -10.3134    -3.2043     4.8454 C
1203 H1203   -11.2548    -3.0657     4.3059 H
1204 H1204   -10.2323    -2.4177     5.6034 H
1205 H1205   -10.3305    -4.1919     5.3191 H
1206 C1206    -9.7164     4.0572     0.1505 C
1207 H1207   -10.6711     4.4763     0.4541 H
1208 H1208    -9.1900     4.5677    -0.6475 H
1209 H1209    -9.8349     2.5103     1.5476 H
1210 C1210    -9.2411     2.9617     0.7534 C
1211 C1211    -7.9965     2.2845     0.4688 C
1212 C1212    -7.0854     2.6237    -0.4495 C
1213 H1213    -7.7999     1.4051     1.0805 H
1214 H1214    -7.1866     3.4772    -1.1052 H
1215 O1215    -5.9394     1.8903    -0.6182 O
1216 C1216    -5.1005     2.4142    -1.6435 C
1217 H1217    -4.2137     1.7779    -1.7156 H
1218 H1218    -4.7753     3.4310    -1.3981 H
1219 H1219    -5.6138     2.3997    -2.6111 H
1220 C1220     1.7489    -2.7349     2.9935 C
1221 H1221     2.4932    -3.3797     2.5357 H
1222 H1222     0.8109    -2.6177     2.4635 H
1223 H1223     2.9787    -2.3010     4.6240 H
1224 C1224     2.0093    -2.1289     4.1574 C
1225 C1225     1.1321    -1.2463     4.8924 C
1226 C1226    -0.1040    -0.8685     4.5493 C
1227 H1227     1.5430    -0.8586     5.8235 H
1228 H1228    -0.6007    -1.1968     3.6470 H
1229 O1229    -0.8336    -0.0205     5.3420 O
1230 C1230    -2.1223     0.2593     4.8028 C
1231 H1231    -2.6378     0.9376     5.4888 H
1232 H1232    -2.7148    -0.6578     4.7158 H
1233 H1233    -2.0373     0.7538     3.8291 H
1234 C1234     0.7902    -5.9012     1.8448 C
1235 H1235     0.3844    -5.5105     2.7732 H
1236 H1236     1.7357    -6.4272     1.9076 H
1237 H1237    -0.8161    -5.1832     0.7209 H
1238 C1238     0.1292    -5.7244     0.6953 C
1239 C1239     0.5309    -6.1790    -0.6164 C
1240 C1240     1.6375    -6.8615    -0.9296 C
1241 H1241    -0.1573    -5.9274    -1.4221 H
1242 H1242     2.3818    -7.1589    -0.2042 H
1243 O1243     1.9005    -7.2341    -2.2225 O
1244 C1244     3.1253    -7.9510    -2.3469 C
1245 H1245     3.2618    -8.2106    -3.4007 H
1246 H1246     3.0934    -8.8788    -1.7654 H
1247 H1247     3.9721    -7.3314    -2.0326 H
1248 C1248    -2.8985    -5.1189     3.1604 C
1249 H1249    -3.4133    -6.0079     2.8084 H
1250 H1250    -2.2640    -4.6064     2.4468 H
1251 H1251    -3.7185    -5.2770     5.0740 H
1252 C1252    -3.0616    -4.7028     4.4214 C
1253 C1253    -2.4524    -3.5478     5.0405 C
1254 C1254    -1.6116    -2.6772     4.4716 C
1255 H1255    -2.7214    -3.3884     6.0838 H
1256 H1256    -1.2835    -2.7472     3.4439 H
1257 O1257    -1.1025    -1.6169     5.1762 O
1258 C1258    -0.2283    -0.8091     4.3934 C
1259 H1259     0.1330     0.0093     5.0228 H
1260 H1260    -0.7596    -0.3768     3.5385 H
1261 H1261     0.6364    -1.3890     4.0531 H
1262 C1262     2.2240     6.1143     0.5308 C
1263 H1263     3.2666     6.3037     0.7681 H
1264 H1264     2.0003     5.1871     0.0161 H
1265 H1265     1.5960     7.9116     1.3877 H
1266 C1266     1.2848     7.0039     0.8716 C
1267 C1267    -0.1364     6.9022     0.6299 C
1268 C1268    -0.7813     5.9014     0.0209 C
1269 H1269    -0.7267     7.7430     0.9915 H
1270 H1270    -0.2876     5.0239    -0.3727 H
1271 O1271    -2.1420     5.9296    -0.1448 O
1272 C1272    -2.6356     4.7734    -0.8150 C
1273 H1273    -3.7211     4.8715    -0.9076 H
1274 H1274    -2.4200     3.8677    -0.2378 H
1275 H1275    -2.2100     4.6961    -1.8214 H
1276 C1276     2.6979     0.9284     5.3259 C
1277 H1277     2.2497     0.7741     6.3029 H
1278 H1278     2.1275     1.5122     4.6129 H
1279 H1279     4.4051    -0.1660     5.8229 H
1280 C1280     3.8989     0.4088     5.0479 C
1281 C1281     4.6276     0.5218     3.8050 C
1282 C1282     4.2405     1.1661     2.6989 C
1283 H1283     5.5942     0.0203     3.7902 H
1284 H1284     3.3009     1.6939     2.6123 H
1285 O1285     5.0325     1.1964     1.5802 O
1286 C1286     4.4428     1.9319     0.5121 C
1287 H1287     5.1315     1.9090    -0.3374 H
1288 H1288     4.2860     2.9771     0.7998 H
1289 H1289     3.4973     1.4747     0.2008 H
1290 C1290    -1.5707     0.9284     3.8680 C
1291 H1291    -0.4920     0.9332     3.9932 H
1292 H1292    -1.9602     0.4043     3.0031 H
1293 H1293    -1.8796     2.0533     5.5996 H
1294 C1294    -2.3533     1.5496     4.7575 C
1295 C1295    -3.7958     1.6353     4.7348 C
1296 C1296    -4.6206     1.1109     3.8220 C
1297 H1297    -4.2375     2.1919     5.5601 H
1298 H1298    -4.2823     0.5425     2.9669 H
1299 O1299    -5.9792     1.2670     3.9189 O
1300 C1300    -6.6800     0.6355     2.8514 C
1301 H1301    -7.7504     0.8047     3.0002 H
1302 H1302    -6.4990    -0.4449     2.8529 H
1303 H1303    -6.3938     1.0701     1.8875 H
1304 C1304    -4.2528    -0.1143     6.0931 C
1305 H1305    -5.2663    -0.0569     6.4787 H
1306 H1306    -3.9976     0.5628     5.2863 H
1307 H1307    -3.7239    -1.6353     7.4219 H
1308 C1308    -3.3851    -0.9905     6.6116 C
1309 C1309    -2.0102    -1.1905     6.2137 C
1310 C1310    -1.3456    -0.5388     5.2534 C
1311 H1311    -1.4768    -1.9602     6.7696 H
1312 H1312    -1.7843     0.2405     4.6461 H
1313 O1313    -0.0346    -0.8279     4.9750 O
1314 C1314     0.4906    -0.0257     3.9214 C
1315 H1315     1.5332    -0.3151     3.7610 H
1316 H1316     0.4659     1.0356     4.1914 H
1317 H1317    -0.0609    -0.1967     2.9905 H
1318 C1318    -0.9665    -0.8319     3.4587 C
1319 H1319    -0.1253    -1.2291     2.8984 H
1320 H1320    -0.9371     0.2238     3.7021 H
1321 H1321    -1.9256    -2.6850     3.5304 H
1322 C1322    -1.9752    -1.6347     3.8160 C
1323 C1323    -3.1588    -1.2646     4.5580 C
1324 C1324    -3.4700    -0.0516     5.0274 C
1325 H1325    -3.8595    -2.0775     4.7434 H
1326 H1326    -2.8427     0.8191     4.8966 H
1327 O1327    -4.6329     0.1653     5.7204 O
1328 C1328    -4.7787     1.5208     6.1339 C
1329 H1329    -5.7243     1.6110     6.6762 H
1330 H1330    -4.8138     2.1900     5.2674 H
1331 H1331    -3.9661     1.8109     6.8087 H
1332 C1332    -1.8924    -5.7305    -2.8895 C
1333 H1333    -2.9064    -6.1029    -3.0004 H
1334 H1334    -1.6786    -5.1521    -1.9982 H
1335 H1335    -1.2734    -6.5808    -4.6931 H
1336 C1336    -0.9744    -5.9911    -3.8271 C
1337 C1337     0.4085    -5.5714    -3.8290 C
1338 C1338     1.0320    -4.8441    -2.8958 C
1339 H1339     0.9867    -5.8935    -4.6939 H
1340 H1340     0.5476    -4.4767    -2.0019 H
1341 O1341     2.3565    -4.5129    -3.0205 O
1342 C1342     2.8319    -3.7369    -1.9244 C
1343 H1343     3.8889    -3.5152    -2.0980 H
1344 H1344     2.7472    -4.2963    -0.9865 H
1345 H1345     2.2884    -2.7885    -1.8548 H
1346 C1346     1.2061     5.3758    -5.8542 C
1347 H1347     1.6195     6.2298    -6.3823 H
1348 H1348     1.0121     4.4853    -6.4407 H
1349 H1349     1.1843     6.3862    -4.0272 H
1350 C1350     0.9597     5.4522    -4.5415 C
1351 C1351     0.4148     4.4129    -3.6981 C
1352 C1352     0.0541     3.1796    -4.0689 C
1353 H1353     0.2934     4.6856    -2.6507 H
1354 H1354     0.1349     2.8125    -5.0825 H
1355 O1355    -0.4527     2.2847    -3.1623 O
1356 C1356    -0.7752     1.0296    -3.7542 C
1357 H1357    -1.1705     0.3760    -2.9712 H
1358 H1358     0.1186     0.5582    -4.1771 H
1359 H1359    -1.5453     1.1491    -4.5239 H
1360 C1360    -7.1334     2.3252    -1.4857 C
1361 H1361    -7.9032     1.6090    -1.7575 H
1362 H1362    -7.1598     3.2854    -1.9875 H
1363 H1363    -6.2568     1.0175    -0.1144 H
1364 C1364    -6.2110     2.0057    -0.5710 C
1365 C1365    -5.1279     2.8395    -0.1017 C
1366 C1366    -4.8427     4.0865    -0.4918 C
1367 H1367    -4.4873     2.3825     0.6512 H
1368 H1368    -5.4162     4.6273    -1.2316 H
1369 O1369    -3.7787     4.7706     0.0368 O
1370 C1370    -3.6447     6.0800    -0.5084 C
1371 H1371    -2.7795     6.5569    -0.0388 H
1372 H1372    -4.5316     6.6846    -0.2899 H
1373 H1373    -3.4688     6.0352    -1.5886 H
1374 C1374    -7.2917    -5.4074     5.6959 C
1375 H1375    -8.2567    -5.8397     5.9431 H
1376 H1376    -7.1825    -4.9914     4.7011 H
1377 H1377    -6.4992    -5.8439     7.5776 H
1378 C1378    -6.3052    -5.4045     6.5996 C
1379 C1379    -4.9725    -4.8723     6.4289 C
1380 C1380    -4.4731    -4.2828     5.3373 C
1381 H1381    -4.3213    -4.9732     7.2960 H
1382 H1382    -5.0370    -4.1349     4.4268 H
1383 O1383    -3.1833    -3.8190     5.3072 O
1384 C1384    -2.8443    -3.2256     4.0572 C
1385 H1385    -1.8070    -2.8832     4.1136 H
1386 H1386    -3.4820    -2.3588     3.8527 H
1387 H1387    -2.9214    -3.9573     3.2458 H
1388 C1388    -4.2913     1.8223     5.2687 C
1389 H1389    -4.7645     0.9688     5.7450 H
1390 H1390    -4.5087     2.7983     5.6866 H
1391 H1391    -3.3184     0.6268     3.8603 H
1392 C1392    -3.4834     1.6428     4.2176 C
1393 C1393    -2.7819     2.6663     3.4765 C
1394 C1394    -2.8071     3.9845     3.7003 C
1395 H1395    -2.1728     2.3016     2.6506 H
1396 H1396    -3.3793     4.4454     4.4934 H
1397 O1397    -2.0904     4.8520     2.9172 O
1398 C1398    -2.2501     6.2099     3.3175 C
1399 H1399    -1.6510     6.8343     2.6484 H
1400 H1400    -1.8896     6.3584     4.3412 H
1401 H1401    -3.2971     6.5199     3.2318 H
1402 C1402    -4.0674    -7.2392     1.8416 C
1403 H1403    -4.0493    -6.7754     2.8233 H
1404 H1404    -3.5977    -8.2117     1.7515 H
1405 H1405    -5.0994    -5.6362     0.9903 H
1406 C1406    -4.6501    -6.6128     0.8130 C
1407 C1407    -4.7583    -7.0909    -0.5464 C
1408 C1408    -4.2975    -8.2480    -1.0336 C
1409 H1409    -5.2750    -6.4199    -1.2312 H
1410 H1410    -3.7722    -8.9809    -0.4372 H
1411 O1411    -4.4682    -8.5821    -2.3523 O
1412 C1412    -3.9070    -9.8519    -2.6720 C
1413 H1413    -4.0836   -10.0439    -3.7343 H
1414 H1414    -4.3899   -10.6471    -2.0937 H
1415 H1415    -2.8257    -9.8542    -2.4971 H
@<TRIPOS>BOND
1 1 2 1
2 1 3 1
3 1 4 1
4 2 5 1
5 2 6 1
6 6 7 1
7 6 8 1
8 8 9 1
9 9 10 1
10 9 11 1
11 9 12 1
12 10 13 1
13 10 14 1
14 10 15 1
15 16 17 1
16 16 18 1
17 16 20 1
18 19 20 1
19 20 21 1
20 21 22 1
21 21 23 1
22 22 24 1
23 22 25 1
24 25 26 1
25 26 27 1
26 26 28 1
27 26 29 1
28 30 31 1
29 30 32 1
30 30 34 1
31 33 34 1
32 34 35 1
33 35 36 1
34 35 37 1
35 36 38 1
36 36 39 1
37 39 40 1
38 40 41 1
39 40 42 1
40 40 43 1
41 44 45 1
42 44 46 1
43 44 48 1
44 47 48 1
45 48 49 1
46 49 50 1
47 49 51 1
48 50 52 1
49 50 53 1
50 53 54 1
51 54 55 1
52 54 56 1
53 54 57 1
54 58 59 1
55 58 60 1
56 58 62 1
57 61 62 1
58 62 63 1
59 63 64 1
60 63 65 1
61 64 66 1
62 64 67 1
63 67 68 1
64 68 69 1
65 68 70 1
66 68 71 1
67 72 73 1
68 72 74 1
69 72 76 1
70 75 76 1
71 76 77 1
72 77 78 1
73 77 79 1
74 78 80 1
75 78 81 1
76 81 82 1
77 82 83 1
78 82 84 1
79 82 85 1
80 86 87 1
81 86 88 1
82 86 90 1
83 89 90 1
84 90 91 1
85 91 92 1
86 91 93 1
87 92 94 1
88 92 95 1
89 95 96 1
90 96 97 1
91 96 98 1
92 96 99 1
93 100 101 1
94 100 102 1
95 100 104 1
96 103 104 1
97 104 105 1
98 105 106 1
99 105 107 1
100 106 108 1
101 106 109 1
102 109 110 1
103 110 111 1
104 110 112 1
105 110 113 1
106 114 115 1
107 114 116 1
108 114 118 1
109 117 118 1
110 118 119 1
111 119 120 1
112 119 121 1
113 120 122 1
114 120 123 1
115 123 124 1
116 124 125 1
117 124 126 1
118 124 127 1
119 128 129 1
120 128 130 1
121 128 132 1
122 131 132 1
123 132 133 1
124 133 134 1
125 133 135 1
126 134 136 1
127 134 137 1
128 137 138 1
129 138 139 1
130 138 140 1
131 138 141 1
132 142 143 1
133 142 144 1
134 142 146 1
135 145 146 1
136 146 147 1
137 147 148 1
138 147 149 1
139 148 150 1
140 148 151 1
141 151 152 1
142 152 153 1
143 152 154 1
144 152 155 1
145 156 157 1
146 156 158 1
147 156 160 1
148 159 160 1
149 160 161 1
150 161 162 1
151 161 163 1
152 162 164 1
153 162 165 1
154 165 166 1
155 166 167 1
156 166 168 1
157 166 169 1
158 170 171 1
159 170 172 1
160 170 174 1
161 173 174 1
162 174 175 1
163 175 176 1
164 175 177 1
165 176 178 1
166 176 179 1
167 179 180 1
168 180 181 1
169 180 182 1
170 180 183 1
171 184 185 1
172 184 186 1
173 184 188 1
174 187 188 1
175 188 189 1
176 189 190 1
177 189 191 1
178 190 192 1
179 190 193 1
180 193 194 1
181 194 195 1
182 194 196 1
183 194 197 1
184 198 199 1
185 198 200 1
186 198 202 1
187 201 202 1
188 202 203 1
189 203 204 1
190 203 205 1
191 204 206 1
192 204 207 1
193 207 208 1
194 208 209 1
195 208 210 1
196 208 211 1
197 212 213 1
198 212 214 1
199 212 216 1
200 215 216 1
201 216 217 1
202 217 218 1
203 217 219 1
204 218 220 1
205 218 221 1
206 221 222 1
207 222 223 1
208 222 224 1
209 222 225 1
210 226 227 1
211 226 228 1
212 226 230 1
213 229 230 1
214 230 231 1
215 231 232 1
216 231 233 1
217 232 234 1
218 232 235 1
219 235 236 1
220 236 237 1
221 236 238 1
222 236 239 1
223 240 241 1
224 240 242 1
225 240 244 1
226 243 244 1
227 244 245 1
228 245 246 1
229 245 247 1
230 246 248 1
231 246 249 1
232 249 250 1
233 250 251 1
234 250 252 1
235 250 253 1
236 254 255 1
237 254 256 1
238 254 258 1
239 257 258 1
240 258 259 1
241 259 260 1
242 259 261 1
243 260 262 1
244 260 263 1
245 263 264 1
246 264 265 1
247 264 266 1
248 264 267 1
249 268 269 1
250 268 270 1
251 268 272 1
252 271 272 1
253 272 273 1
254 273 274 1
255 273 275 1
256 274 276 1
257 274 277 1
258 277 278 1
259 278 279 1
260 278 280 1
261 278 281 1
262 282 283 1
263 282 284 1
264 282 286 1
265 285 286 1
266 286 287 1
267 287 288 1
268 287 289 1
269 288 290 1
270 288 291 1
271 291 292 1
272 292 293 1
273 292 294 1
274 292 295 1
275 296 297 1
276 296 298 1
277 296 300 1
278 299 300 1
279 300 301 1
280 301 302 1
281 301 303 1
282 302 304 1
283 302 305 1
284 305 306 1
285 306 307 1
286 306 308 1
287 306 309 1
288 310 311 1
289 310 312 1
290 310 314 1
291 313 314 1
292 314 315 1
293 315 316 1
294 315 317 1
295 316 318 1
296 316 319 1
297 319 320 1
298 320 321 1
299 320 322 1
300 320 323 1
301 324 325 1
302 324 326 1
303 324 328 1
304 327 328 1
305 328 329 1
306 329 330 1
307 329 331 1
308 330 332 1
309 330 333 1
310 333 334 1
311 334 335 1
312 334 336 1
313 334 337 1
314 338 339 1
315 338 340 1
316 338 342 1
317 341 342 1
318 342 343 1
319 343 344 1
320 343 345 1
321 344 346 1
322 344 347 1
323 347 348 1
324 348 349 1
325 348 350 1
326 348 351 1
327 352 353 1
328 352 354 1
329 352 356 1
330 355 356 1
331 356 357 1
332 357 358 1
333 357 359 1
334 358 360 1
335 358 361 1
336 361 362 1
337 362 363 1
338 362 364 1
339 362 365 1
340 366 367 1
341 366 368 1
342 366 370 1
343 369 370 1
344 370 371 1
345 371 372 1
346 371 373 1
347 372 374 1
348 372 375 1
349 375 376 1
350 376 377 1
351 376 378 1
352 376 379 1
353 380 381 1
354 380 382 1
355 380 384 1
356 383 384 1
357 384 385 1
358 385 386 1
359 385 387 1
360 386 388 1
361 386 389 1
362 389 390 1
363 390 391 1
364 390 392 1
365 390 393 1
366 394 395 1
367 394 396 1
368 394 398 1
369 397 398 1
370 398 399 1
371 399 400 1
372 399 401 1
373 400 402 1
374 400 403 1
375 403 404 1
376 404 405 1
377 404 406 1
378 404 407 1
379 408 409 1
380 408 410 1
381 408 412 1
382 411 412 1
383 412 413 1
384 413 414 1
385 413 415 1
386 414 416 1
387 414 417 1
388 417 418 1
389 418 419 1
390 418 420 1
391 418 421 1
392 422 423 1
393 422 424 1
394 422 426 1
395 425 426 1
396 426 427 1
397 427 428 1
398 427 429 1
399 428 430 1
400 428 431 1
401 431 432 1
402 432 433 1
403 432 434 1
404 432 435 1
405 436 437 1
406 436 438 1
407 436 440 1
408 439 440 1
409 440 441 1
410 441 442 1
411 441 443 1
412 442 444 1
413 442 445 1
414 445 446 1
415 446 447 1
416 446 448 1
417 446 449 1
418 450 451 1
419 450 452 1
420 450 454 1
421 453 454 1
422 454 455 1
423 455 456 1
424 455 457 1
425 456 458 1
426 456 459 1
427 459 460 1
428 460 461 1
429 460 462 1
430 460 463 1
431 464 465 1
432 464 466 1
433 464 468 1
434 467 468 1
435 468 469 1
436 469 470 1
437 469 471 1
438 470 472 1
439 470 473 1
440 473 474 1
441 474 475 1
442 474 476 1
443 474 477 1
444 478 479 1
445 478 480 1
446 478 482 1
447 481 482 1
448 482 483 1
449 483 484 1
450 483 485 1
451 484 486 1
452 484 487 1
453 487 488 1
454 488 489 1
455 488 490 1
456 488 491 1
457 492 493 1
458 492 494 1
459 492 496 1
460 495 496 1
461 496 497 1
462 497 498 1
463 497 499 1
464 498 500 1
465 498 501 1
466 501 502 1
467 502 503 1
468 502 504 1
469 502 505 1
470 506 507 1
471 506 508 1
472 506 510 1
473 509 510 1
474 510 511 1
475 511 512 1
476 511 513 1
477 512 514 1
478 512 515 1
479 515 516 1
480 516 517 1
481 516 518 1
482 516 519 1
483 520 521 1
484 520 522 1
485 520 524 1
486 523 524 1
487 524 525 1
488 525 526 1
489 525 527 1
490 526 528 1
491 526 529 1
492 529 530 1
493 530 531 1
494 530 532 1
495 530 533 1
496 534 535 1
497 534 536 1
498 534 538 1
499 537 538 1
500 538 539 1
501 539 540 1
502 539 541 1
503 540 542 1
504 540 543 1
505 543 544 1
506 544 545 1
507 544 546 1
508 544 547 1
509 548 549 1
510 548 550 1
511 548 552 1
512 551 552 1
513 552 553 1
514 553 554 1
515 553 555 1
516 554 556 1
517 554 557 1
518 557 558 1
519 558 559 1
520 558 560 1
521 558 561 1
522 562 563 1
523 562 564 1
524 562 566 1
525 565 566 1
526 566 567 1
527 567 568 1
528 567 569 1
529 568 570 1
530 568 571 1
531 571 572 1
532 572 573 1
533 572 574 1
534 572 575 1
535 576 577 1
536 576 578 1
537 576 580 1
538 579 580 1
539 580 581 1
540 581 582 1
541 581 583 1
542 582 584 1
543 582 585 1
544 585 586 1
545 586 587 1
546 586 588 1
547 586 589 1
548 590 591 1
549 590 592 1
550 590 594 1
551 593 594 1
552 594 595 1
553 595 596 1
554 595 597 1
555 596 598 1
556 596 599 1
557 599 600 1
558 600 601 1
559 600 602 1
560 600 603 1
561 604 605 1
562 604 606 1
563 604 608 1
564 607 608 1
565 608 609 1
566 609 610 1
567 609 611 1
568 610 612 1
569 610 613 1
570 613 614 1
571 614 615 1
572 614 616 1
573 614 617 1
574 618 619 1
575 618 620 1
576 618 622 1
577 621 622 1
578 622 623 1
579 623 624 1
580 623 625 1
581 624 626 1
582 624 627 1
583 627 628 1
584 628 629 1
585 628 630 1
586 628 631 1
587 632 633 1
588 632 634 1
589 632 636 1
590 635 636 1
591 636 637 1
592 637 638 1
593 637 639 1
594 638 640 1
595 638 641 1
596 641 642 1
597 642 643 1
598 642 644 1
599 642 645 1
600 646 647 1
601 646 648 1
602 646 650 1
603 649 650 1
604 650 651 1
605 651 652 1
606 651 653 1
607 652 654 1
608 652 655 1
609 655 656 1
610 656 657 1
611 656 658 1
612 656 659 1
613 660 661 1
614 660 662 1
615 660 664 1
616 663 664 1
617 664 665 1
618 665 666 1
619 665 667 1
620 666 668 1
621 666 669 1
622 669 670 1
623 670 671 1
624 670 672 1
625 670 673 1
626 674 675 1
627 674 676 1
628 674 678 1
629 677 678 1
630 678 679 1
631 679 680 1
632 679 681 1
633 680 682 1
634 680 683 1
635 683 684 1
636 684 685 1
637 684 686 1
638 684 687 1
639 688 689 1
640 688 690 1
641 688 692 1
642 691 692 1
643 692 693 1
644 693 694 1
645 693 695 1
646 694 696 1
647 694 697 1
648 697 698 1
649 698 699 1
650 698 700 1
651 698 701 1
652 702 703 1
653 702 704 1
654 702 706 1
655 705 706 1
656 706 707 1
657 707 708 1
658 707 709 1
659 708 710 1
660 708 711 1
661 711 712 1
662 712 713 1
663 712 714 1
664 712 715 1
665 716 717 1
666 716 718 1
667 716 720 1
668 719 720 1
669 720 721 1
670 721 722 1
671 721 723 1
672 722 724 1
673 722 725 1
674 725 726 1
675 726 727 1
676 726 728 1
677 726 729 1
678 730 731 1
679 730 732 1
680 730 734 1
681 733 734 1
682 734 735 1
683 735 736 1
684 735 737 1
685 736 738 1
686 736 739 1
687 739 740 1
688 740 741 1
689 740 742 1
690 740 743 1
691 744 745 1
692 744 746 1
693 744 748 1
694 747 748 1
695 748 749 1
696 749 750 1
697 749 751 1
698 750 752 1
699 750 753 1
700 753 754 1
701 754 755 1
702 754 756 1
703 754 757 1
704 758 759 1
705 758 760 1
706 758 762 1
707 761 762 1
708 762 763 1
709 763 764 1
710 763 765 1
711 764 766 1
712 764 767 1
713 767 768 1
714 768 769 1
715 768 770 1
716 768 771 1
717 772 773 1
718 772 774 1
719 772 776 1
720 775 776 1
721 776 777 1
722 777 778 1
723 777 779 1
724 778 780 1
725 778 781 1
726 781 782 1
727 782 783 1
728 782 784 1
729 782 785 1
730 786 787 1
731 786 788 1
732 786 790 1
733 789 790 1
734 790 791 1
735 791 792 1
736 791 793 1
737 792 794 1
738 792 795 1
739 795 796 1
740 796 797 1
741 796 798 1
742 796 799 1
743 800 801 1
744 800 802 1
745 800 804 1
746 803 804 1
747 804 805 1
748 805 806 1
749 805 807 1
750 806 808 1
751 806 809 1
752 809 810 1
753 810 811 1
754 810 812 1
755 810 813 1
756 814 815 1
757 814 816 1
758 814 818 1
759 817 818 1
760 818 819 1
761 819 820 1
762 819 821 1
763 820 822 1
764 820 823 1
765 823 824 1
766 824 825 1
767 824 826 1
768 824 827 1
769 828 829 1
770 828 830 1
771 828 832 1
772 831 832 1
773 832 833 1
774 833 834 1
775 833 835 1
776 834 836 1
777 834 837 1
778 837 838 1
779 838 839 1
780 838 840 1
781 838 841 1
782 842 843 1
783 842 844 1
784 842 846 1
785 845 846 1
786 846 847 1
787 847 848 1
788 847 849 1
789 848 850 1
790 848 851 1
791 851 852 1
792 852 853 1
793 852 854 1
794 852 855 1
795 856 857 1
796 856 858 1
797 856 860 1
798 859 860 1
799 860 861 1
800 861 862 1
801 861 863 1
802 862 864 1
803 862 865 1
804 865 866 1
805 866 867 1
806 866 868 1
807 866 869 1
808 870 871 1
809 870 872 1
810 870 874 1
811 873 874 1
812 874 875 1
813 875 876 1
814 875 877 1
815 876 878 1
816 876 879 1
817 879 880 1
818 880 881 1
819 880 882 1
820 880 883 1
821 884 885 1
822 884 886 1
823 884 888 1
824 887 888 1
825 888 889 1
826 889 890 1
827 889 891 1
828 890 892 1
829 890 893 1
830 893 894 1
831 894 895 1
832 894 896 1
833 894 897 1
834 898 899 1
835 898 900 1
836 898 902 1
837 901 902 1
838 902 903 1
839 903 904 1
840 903 905 1
841 904 906 1
842 904 907 1
843 907 908 1
844 908 909 1
845 908 910 1
846 908 911 1
847 912 913 1
848 912 914 1
849 912 916 1
850 915 916 1
851 916 917 1
852 917 918 1
853 917 919 1
854 918 920 1
855 918 921 1
856 921 922 1
857 922 923 1
858 922 924 1
859 922 925 1
860 926 927 1
861 926 928 1
862 926 930 1
863 929 930 1
864 930 931 1
865 931 932 1
866 931 933 1
867 932 934 1
868 932 935 1
869 935 936 1
870 936 937 1
871 936 938 1
872 936 939 1
873 940 941 1
874 940 942 1
875 940 944 1
876 943 944 1
877 944 945 1
878 945 946 1
879 945 947 1
880 946 948 1
881 946 949 1
882 949 950 1
883 950 951 1
884 950 952 1
885 950 953 1
886 954 955 1
887 954 956 1
888 954 958 1
889 957 958 1
890 958 959 1
891 959 960 1
892 959 961 1
893 960 962 1
894 960 963 1
895 963 964 1
896 964 965 1
897 964 966 1
898 964 967 1
899 968 969 1
900 968 970 1
901 968 972 1
902 971 972 1
903 972 973 1
904 973 974 1
905 973 975 1
906 974 976 1
907 974 977 1
908 977 978 1
909 978 979 1
910 978 980 1
911 978 981 1
912 982 983 1
913 982 984 1
914 982 986 1
915 985 986 1
916 986 987 1
917 987 988 1
918 987 989 1
919 988 990 1
920 988 991 1
921 991 992 1
922 992 993 1
923 992 994 1
924 992 995 1
925 996 997 1
926 996 998 1
927 996 1000 1
928 999 1000 1
929 1000 1001 1
930 1001 1002 1
931 1001 1003 1
932 1002 1004 1
933 1002 1005 1
934 1005 1006 1
935 1006 1007 1
936 1006 1008 1
937 1006 1009 1
938 1010 1011 1
939 1010 1012 1
940 1010 1014 1
941 1013 1014 1
942 1014 1015 1
943 1015 1016 1
944 1015 1017 1
945 1016 1018 1
946 1016 1019 1
947 1019 1020 1
948 1020 1021 1
949 1020 1022 1
950 1020 1023 1
951 1024 1025 1
952 1024 1026 1
953 1024 1028 1
954 1027 1028 1
955 1028 1029 1
956 1029 1030 1
957 1029 1031 1
958 1030 1032 1
959 1030 1033 1
960 1033 1034 1
961 1034 1035 1
962 1034 1036 1
963 1034 1037 1
964 1038 1039 1
965 1038 1040 1
966 1038 1042 1
967 1041 1042 1
968 1042 1043 1
969 1043 1044 1
970 1043 1045 1
971 1044 1046 1
972 1044 1047 1
973 1047 1048 1
974 1048 1049 1
975 1048 1050 1
976 1048 1051 1
977 1052 1053 1
978 1052 1054 1
979 1052 1056 1
980 1055 1056 1
981 1056 1057 1
982 1057 1058 1
983 1057 1059 1
984 1058 1060 1
985 1058 1061 1
986 1061 1062 1
987 1062 1063 1
988 1062 1064 1
989 1062 1065 1
990 1066 1067 1
991 1066 1068 1
992 1066 1070 1
993 1069 1070 1
994 1070 1071 1
995 1071 1072 1
996 1071 1073 1
997 1072 1074 1
998 1072 1075 1
999 1075 1076 1
1000 1076 1077 1
1001 1076 1078 1
1002 1076 1079 1
1003 1080 1081 1
1004 1080 1082 1
1005 1080 1084 1
1006 1083 1084 1
1007 1084 1085 1
1008 1085 1086 1
1009 1085 1087 1
1010 1086 1088 1
1011 1086 1089 1
1012 1089 1090 1
1013 1090 1091 1
1014 1090 1092 1
1015 1090 1093 1
1016 1094 1095 1
1017 1094 1096 1
1018 1094 1098 1
1019 1097 1098 1
1020 1098 1099 1
1021 1099 1100 1
1022 1099 1101 1
1023 1100 1102 1
1024 1100 1103 1
1025 1103 1104 1
1026 1104 1105 1
1027 1104 1106 1
1028 1104 1107 1
1029 1108 1109 1
1030 1108 1110 1
1031 1108 1112 1
1032 1111 1112 1
1033 1112 1113 1
1034 1113 1114 1
1035 1113 1115 1
1036 1114 1116 1
1037 1114 1117 1
1038 1117 1118 1
1039 1118 1119 1
1040 1118 1120 1
1041 1118 1121 1
1042 1122 1123 1
1043 1122 1124 1
1044 1122 1126 1
1045 1125 1126 1
1046 1126 1127 1
1047 1127 1128 1
1048 1127 1129 1
1049 1128 1130 1
1050 1128 1131 1
1051 1131 1132 1
1052 1132 1133 1
1053 1132 1134 1
1054 1132 1135 1
1055 1136 1137 1
1056 1136 1138 1
1057 1136 1140 1
1058 1139 1140 1
1059 1140 1141 1
1060 1141 1142 1
1061 1141 1143 1
1062 1142 1144 1
1063 1142 1145 1
1064 1145 1146 1
1065 1146 1147 1
1066 1146 1148 1
1067 1146 1149 1
1068 1150 1151 1
1069 1150 1152 1
1070 1150 1154 1
1071 1153 1154 1
1072 1154 1155 1
1073 1155 1156 1
1074 1155 1157 1
1075 1156 1158 1
1076 1156 1159 1
1077 1159 1160 1
1078 1160 1161 1
1079 1160 1162 1
1080 1160 1163 1
1081 1164 1165 1
1082 1164 1166 1
1083 1164 1168 1
1084 1167 1168 1
1085 1168 1169 1
1086 1169 1170 1
1087 1169 1171 1
1088 1170 1172 1
1089 1170 1173 1
1090 1173 1174 1
1091 1174 1175 1
1092 1174 1176 1
1093 1174 1177 1
1094 1178 1179 1
1095 1178 1180 1
1096 1178 1182 1
1097 1181 1182 1
1098 1182 1183 1
1099 1183 1184 1
1100 1183 1185 1
1101 1184 1186 1
1102 1184 1187 1
1103 1187 1188 1
1104 1188 1189 1
1105 1188 1190 1
1106 1188 1191 1
1107 1192 1193 1
1108 1192 1194 1
1109 1192 1196 1
1110 1195 1196 1
1111 1196 1197 1
1112 1197 1198 1
1113 1197 1199 1
1114 1198 1200 1
1115 1198 1201 1
1116 1201 1202 1
1117 1202 1203 1
1118 1202 1204 1
1119 1202 1205 1
1120 1206 1207 1
1121 1206 1208 1
1122 1206 1210 1
1123 1209 1210 1
1124 1210 1211 1
1125 1211 1212 1
1126 1211 1213 1
1127 1212 1214 1
1128 1212 1215 1
1129 1215 1216 1
1130 1216 1217 1
1131 1216 1218 1
1132 1216 1219 1
1133 1220 1221 1
1134 1220 1222 1
1135 1220 1224 1
1136 1223 1224 1
1137 1224 1225 1
1138 1225 1226 1
1139 1225 1227 1
1140 1226 1228 1
1141 1226 1229 1
1142 1229 1230 1
1143 1230 1231 1
1144 1230 1232 1
1145 1230 1233 1
1146 1234 1235 1
1147 1234 1236 1
1148 1234 1238 1
1149 1237 1238 1
1150 1238 1239 1
1151 1239 1240 1
1152 1239 1241 1
1153 1240 1242 1
1154 1240 1243 1
1155 1243 1244 1
1156 1244 1245 1
1157 1244 1246 1
1158 1244 1247 1
1159 1248 1249 1
1160 1248 1250 1
1161 1248 1252 1
1162 1251 1252 1
1163 1252 1253 1
1164 1253 1254 1
1165 1253 1255 1
1166 1254 1256 1
1167 1254 1257 1
1168 1257 1258 1
1169 1258 1259 1
1170 1258 1260 1
1171 1258 1261 1
1172 1262 1263 1
1173 1262 1264 1
1174 1262 1266 1
1175 1265 1266 1
1176 1266 1267 1
1177 1267 1268 1
1178 1267 1269 1
1179 1268 1270 1
1180 1268 1271 1
1181 1271 1272 1
1182 1272 1273 1
1183 1272 1274 1
1184 1272 1275 1
1185 1276 1277 1
1186 1276 1278 1
1187 1276 1280 1
1188 1279 1280 1
1189 1280 1281 1
1190 1281 1282 1
1191 1281 1283 1
1192 1282 1284 1
1193 1282 1285 1
1194 1285 1286 1
1195 1286 1287 1
1196 1286 1288 1
1197 1286 1289 1
1198 1290 1291 1
1199 1290 1292 1
1200 1290 1294 1
1201 1293 1294 1
1202 1294 1295 1
1203 1295 1296 1
1204 1295 1297 1
1205 1296 1298 1
1206 1296 1299 1
1207 1299 1300 1
1208 1300 1301 1
1209 1300 1302 1
1210 1300 1303 1
1211 1304 1305 1
1212 1304 1306 1
1213 1304 1308 1
1214 1307 1308 1
1215 1308 1309 1
1216 1309 1310 1
1217 1309 1311 1
1218 1310 1312 1
1219 1310 1313 1
1220 1313 1314 1
1221 1314 1315 1
1222 1314 1316 1
1223 1314 1317 1
1224 1318 1319 1
1225 1318 1320 1
1226 1318 1322 1
1227 1321 1322 1
1228 1322 1323 1
1229 1323 1324 1
1230 1323 1325 1
1231 1324 1326 1
1232 1324 1327 1
1233 1327 1328 1
1234 1328 1329 1
1235 1328 1330 1
1236 1328 1331 1
1237 1332 1333 1
1238 1332 1334 1
1239 1332 1336 1
1240 1335 1336 1
1241 1336 1337 1
1242 1337 1338 1
1243 1337 1339 1
1244 1338 1340 1
1245 1338 1341 1
1246 1341 1342 1
1247 1342 1343 1
1248 1342 1344 1
1249 1342 1345 1
1250 1346 1347 1
1251 1346 1348 1
1252 1346 1350 1
1253 1349 1350 1
1254 1350 1351 1
1255 1351 1352 1
1256 1351 1353 1
1257 1352 1354 1
1258 1352 1355 1
1259 1355 1356 1
1260 1356 1357 1
1261 1356 1358 1
1262 1356 1359 1
1263 1360 1361 1
1264 1360 1362 1
1265 1360 1364 1
1266 1363 1364 1
1267 1364 1365 1
1268 1365 1366 1
1269 1365 1367 1
1270 1366 1368 1
1271 1366 1369 1
1272 1369 1370 1
1273 1370 1371 1
1274 1370 1372 1
1275 1370 1373 1
1276 1374 1375 1
1277 1374 1376 1
1278 1374 1378 1
1279 1377 1378 1
1280 1378 1379 1
1281 1379 1380 1
1282 1379 1381 1
1283 1380 1382 1
1284 1380 1383 1
1285 1383 1384 1
1286 1384 1385 1
1287 1384 1386 1
1288 1384 1387 1
1289 1388 1389 1
1290 1388 1390 1
1291 1388 1392 1
1292 1391 1392 1
1293 1392 1393 1
1294 1393 1394 1
1295 1393 1395 1
1296 1394 1396 1
1297 1394 1397 1
1298 1397 1398 1
1299 1398 1399 1
1300 1398 1400 1
1301 1398 1401 1
1302 1402 1403 1
1303 1402 1404 1
1304 1402 1406 1
1305 1405 1406 1
1306 1406 1407 1
1307 1407 1408 1
1308 1407 1409 1
1309 1408 1410 1
1310 1408 1411 1
1311 1411 1412 1
1312 1412 1413 1
1313 1412 1414 1
1314 1412 1415 1
