# Title
# Created by GaussView 5.0.8
#

#
#

@<TRIPOS>MOLECULE
Molecule Name
127 96
SMALL
NO_CHARGES


@<TRIPOS>ATOM
1 C1     0.0000     0.0000     0.0000 C
2 H2    -1.0835     0.0000     0.0000 H
3 C3     0.7457     1.1053     0.0000 C
4 H4     0.2726     2.0824     0.0000 H
5 H5     1.8291     1.0747    -0.0000 H
6 O6     0.5011    -1.2693     0.0000 O
7 H7     1.4727    -1.2210    -0.0000 H
8 C8     2.3187    -4.7119    -0.3115 C
9 H9     2.7223    -5.7303    -0.4283 H
10 H10     1.3146    -4.5478    -0.7341 H
11 O11     2.9443    -3.8218     0.2507 O
12 C12     0.7773    -2.4309     3.0897 C
13 H13     0.3939    -3.1815     2.3803 H
14 H14     0.1430    -2.2426     3.9707 H
15 O15     1.8377    -1.8449     2.9110 O
16 C16     2.4984    -1.5927     3.3329 C
17 H17     2.5714    -1.0096     4.2647 H
18 H18     1.6882    -2.3386     3.3018 H
19 O19     3.2666    -1.4232     2.3943 O
20 C20     4.9970    -1.2313    -2.2198 C
21 H21     4.8846    -1.5545    -3.2670 H
22 H22     6.0312    -1.1983    -1.8414 H
23 O23     4.0365    -0.9288    -1.5229 O
24 C24    -1.6039    -2.8717    -1.6728 C
25 H25    -1.7488    -3.2987    -0.6676 H
26 H26    -0.8817    -3.4016    -2.3141 H
27 O27    -2.2054    -1.8746    -2.0520 O
28 C28     2.4494    -2.3561     3.4443 C
29 H29     1.6585    -1.6313     3.6954 H
30 H30     2.7725    -3.0110     4.2692 H
31 O31     2.9367    -2.4288     2.3232 O
32 C32     4.8280    -0.9837    -2.0360 C
33 H33     5.5488    -0.5300    -2.7348 H
34 H34     5.2109    -1.8279    -1.4406 H
35 O35     3.6779    -0.5769    -1.9281 O
36 C36     2.3984    -3.9949    -1.4929 C
37 H37     1.5995    -3.4419    -2.0121 H
38 H38     2.1732    -5.0482    -1.2609 H
39 O39     3.4654    -3.4738    -1.1935 O
40 C40    -1.2651    -3.4041    -1.4079 C
41 H41    -0.4636    -4.1240    -1.6384 H
42 H42    -1.5958    -3.3822    -0.3572 H
43 O43    -1.7557    -2.6769    -2.2624 O
44 C44     0.7869    -1.6476     3.5537 C
45 H45     0.1129    -1.0092     2.9605 H
46 H46     0.4631    -1.8483     4.5874 H
47 O47     1.8265    -2.1038     3.0946 O
48 C48     1.5117    -4.6513    -1.6155 C
49 H49     0.7578    -4.0511    -1.0815 H
50 H50     1.1218    -5.5213    -2.1676 H
51 O51     2.7035    -4.3701    -1.5967 O
52 C52    -0.5618    -3.3009    -2.3587 C
53 H53    -0.7766    -4.1123    -1.6451 H
54 H54    -1.1625    -2.3860    -2.2321 H
55 O55     0.2877    -3.4087    -3.2341 O
56 C56     2.9020    -4.0834    -0.9114 C
57 H57     2.4352    -4.8249    -1.5793 H
58 H58     2.8656    -4.3232     0.1633 H
59 O59     3.4262    -3.0611    -1.3352 O
60 C60    -0.5177    -2.7781    -2.9758 C
61 H61     0.3281    -2.0728    -3.0040 H
62 H62    -0.8585    -3.0708    -1.9699 H
63 O63    -1.0439    -3.2081    -3.9946 O
64 C64     0.5798    -1.7880     3.3175 C
65 H65    -0.3774    -2.2760     3.0736 H
66 H66     0.5160    -0.9424     4.0207 H
67 O67     1.6436    -2.1607     2.8389 O
68 C68    -0.4523    -4.2117    -1.7084 C
69 H69    -1.1085    -3.5208    -1.1554 H
70 H70    -0.9679    -4.9560    -2.3361 H
71 O71     0.7686    -4.1562    -1.6305 O
72 C72     5.3347    -0.2855    -1.8131 C
73 H73     5.7266    -1.1644    -1.2768 H
74 H74     5.8586    -0.0265    -2.7469 H
75 O75     4.3803     0.3605    -1.3988 O
76 C76     2.3532    -0.1911    -3.9051 C
77 H77     1.4674    -0.4917    -4.4870 H
78 H78     3.2176     0.1490    -4.4976 H
79 O79     2.3757    -0.2322    -2.6813 O
80 C80    -1.5812    -3.7583    -2.0356 C
81 H81    -2.1028    -4.0370    -1.1061 H
82 H82    -1.1129    -2.7610    -2.0365 H
83 O83    -1.5255    -4.5070    -3.0031 O
84 C84     0.5886    -1.3868     3.4725 C
85 H85     0.2510    -0.4774     2.9503 H
86 H86     0.4758    -2.3271     2.9094 H
87 O87     1.0579    -1.3548     4.6032 O
88 C88     2.1131    -4.0110    -1.4210 C
89 H89     2.1633    -4.1193    -0.3258 H
90 H90     1.2273    -4.4557    -1.9019 H
91 O91     2.9838    -3.4349    -2.0611 O
92 C92     2.9227    -4.2267    -0.2327 C
93 H93     1.9525    -4.7447    -0.2964 H
94 H94     3.5956    -4.3715    -1.0929 H
95 O95     3.2325    -3.5360     0.7300 O
96 C96     1.2124     0.3326     3.5322 C
97 H97     1.0293    -0.5388     2.8835 H
98 H98     0.4259     0.5463     4.2735 H
99 O99     2.2226     1.0181     3.4357 O
100 C100     1.3698    -4.9701    -1.3388 C
101 H101     1.3642    -5.1731    -2.4216 H
102 H102     0.8156    -4.0725    -1.0212 H
103 O103     1.9532    -5.6938    -0.5415 O
104 C104     2.2251    -4.6545     1.1611 C
105 H105     2.2831    -5.4969     1.8687 H
106 H106     1.5133    -3.8575     1.4292 H
107 O107     2.9062    -4.6072     0.1445 O
108 C108    -1.5664    -2.9452    -2.6254 C
109 H109    -1.1374    -3.1744    -1.6370 H
110 H110    -2.6035    -3.2821    -2.7826 H
111 O111    -0.9330    -2.3551    -3.4916 O
112 C112    -4.0974    -0.9508    -2.1077 C
113 H113    -3.6970    -1.9210    -2.4425 H
114 H114    -4.7210    -0.4157    -2.8417 H
115 O115    -3.8650    -0.4974    -0.9941 O
116 C116    -4.7442     1.2012    -0.6458 C
117 H117    -4.9655     0.9927     0.4131 H
118 H118    -5.5105     1.7799    -1.1860 H
119 O119    -3.7153     0.8156    -1.1864 O
120 C120     2.6673     2.5483    -2.8605 C
121 H121     1.8858     3.2158    -3.2572 H
122 H122     2.7980     1.5968    -3.4004 H
123 O123     3.3456     2.8442    -1.8847 O
124 C124     0.5929     6.0714    -0.7640 C
125 H125     1.2804     6.9084    -0.5625 H
126 H126    -0.0686     6.1996    -1.6356 H
127 O127     0.5659     5.0657    -0.0658 O
@<TRIPOS>BOND
1 1 2 1
2 1 3 1
3 1 6 1
4 3 4 1
5 3 5 1
6 6 7 1
7 8 9 1
8 8 10 1
9 8 11 1
10 12 13 1
11 12 14 1
12 12 15 1
13 16 17 1
14 16 18 1
15 16 19 1
16 20 21 1
17 20 22 1
18 20 23 1
19 24 25 1
20 24 26 1
21 24 27 1
22 28 29 1
23 28 30 1
24 28 31 1
25 32 33 1
26 32 34 1
27 32 35 1
28 36 37 1
29 36 38 1
30 36 39 1
31 40 41 1
32 40 42 1
33 40 43 1
34 44 45 1
35 44 46 1
36 44 47 1
37 48 49 1
38 48 50 1
39 48 51 1
40 52 53 1
41 52 54 1
42 52 55 1
43 56 57 1
44 56 58 1
45 56 59 1
46 60 61 1
47 60 62 1
48 60 63 1
49 64 65 1
50 64 66 1
51 64 67 1
52 68 69 1
53 68 70 1
54 68 71 1
55 72 73 1
56 72 74 1
57 72 75 1
58 76 77 1
59 76 78 1
60 76 79 1
61 80 81 1
62 80 82 1
63 80 83 1
64 84 85 1
65 84 86 1
66 84 87 1
67 88 89 1
68 88 90 1
69 88 91 1
70 92 93 1
71 92 94 1
72 92 95 1
73 96 97 1
74 96 98 1
75 96 99 1
76 100 101 1
77 100 102 1
78 100 103 1
79 104 105 1
80 104 106 1
81 104 107 1
82 108 109 1
83 108 110 1
84 108 111 1
85 112 113 1
86 112 114 1
87 112 115 1
88 116 117 1
89 116 118 1
90 116 119 1
91 120 121 1
92 120 122 1
93 120 123 1
94 124 125 1
95 124 126 1
96 124 127 1
