# Title
# Created by GaussView 5.0.8
#

#
#

@<TRIPOS>MOLECULE
Molecule Name
435 404
SMALL
NO_CHARGES


@<TRIPOS>ATOM
1 C1     0.0000     0.0000     0.0000 C
2 C2    -1.3390     0.0000     0.0000 C
3 H3     0.5559     0.9314     0.0000 H
4 H4     0.5686    -0.9265    -0.0001 H
5 H5    -1.9061     0.9226    -0.0001 H
6 C6    -2.0971    -1.2694    -0.0002 C
7 O7    -1.6031    -2.3842    -0.0014 O
8 O8    -3.4183    -0.9633    -0.0029 O
9 C9    -4.3117    -2.0860     0.0018 C
10 C10    -4.5751    -2.5519    -1.4179 C
11 H11    -5.2481    -1.7477     0.4576 H
12 H12    -3.9261    -2.9004     0.6260 H
13 H13    -4.9608    -1.7282    -2.0275 H
14 H14    -5.3011    -3.3697    -1.4293 H
15 H15    -3.6526    -2.8968    -1.8957 H
16 C16     0.3606    -8.1199    -4.2324 C
17 H17     0.6333    -8.4438    -5.2323 H
18 H18     0.8871    -7.2592    -3.8366 H
19 H19    -1.0652    -9.6304    -4.0208 H
20 C20    -0.5848    -8.7741    -3.5483 C
21 C21    -1.0598    -8.4721    -2.2173 C
22 C22    -0.6453    -7.4832    -1.4181 C
23 H23    -1.8399    -9.1347    -1.8449 H
24 H24     0.1221    -6.7735    -1.6938 H
25 O25    -1.1830    -7.3061    -0.1694 O
26 C26    -0.6082    -6.2010     0.5220 C
27 H27    -1.0870    -6.1272     1.5027 H
28 H28    -0.7889    -5.2666    -0.0202 H
29 H29     0.4658    -6.3536     0.6742 H
30 C30    -5.2079    -6.6094    -1.7085 C
31 H31    -6.2442    -6.8791    -1.5279 H
32 H32    -4.4950    -6.8594    -0.9315 H
33 H33    -5.6414    -5.7829    -3.5762 H
34 C34    -4.8611    -5.9981    -2.8469 C
35 C35    -3.5351    -5.5761    -3.2370 C
36 C36    -2.4051    -5.7162    -2.5357 C
37 H37    -3.4730    -5.0941    -4.2117 H
38 H38    -2.3606    -6.1799    -1.5601 H
39 O39    -1.2051    -5.2686    -3.0247 O
40 C40    -0.1243    -5.5114    -2.1288 C
41 H41     0.7911    -5.1280    -2.5886 H
42 H42     0.0021    -6.5853    -1.9542 H
43 H43    -0.2796    -4.9852    -1.1807 H
44 C44     4.4127    -1.3901    -2.8017 C
45 H45     5.1199    -0.6722    -3.2063 H
46 H46     3.6840    -1.8004    -3.4911 H
47 H47     5.2307    -1.2700    -0.8845 H
48 C48     4.4657    -1.7303    -1.5090 C
49 C49     3.6035    -2.6637    -0.8205 C
50 C50     2.5909    -3.3632    -1.3438 C
51 H51     3.8200    -2.7961     0.2386 H
52 H52     2.2964    -3.3028    -2.3823 H
53 O53     1.8472    -4.2205    -0.5748 O
54 C54     0.8183    -4.8687    -1.3170 C
55 H55     0.2742    -5.5307    -0.6372 H
56 H56     1.2441    -5.4770    -2.1222 H
57 H57     0.1118    -4.1367    -1.7231 H
58 C58    -9.8017    -0.6865     3.0702 C
59 H59   -10.3035     0.1107     3.6104 H
60 H60    -9.7155    -1.6411     3.5762 H
61 H61    -9.4534     0.5225     1.4040 H
62 C62    -9.3242    -0.4678     1.8399 C
63 C63    -8.6365    -1.4163     0.9938 C
64 C64    -8.3474    -2.6904     1.2794 C
65 H65    -8.3295    -1.0299     0.0229 H
66 H66    -8.6083    -3.1676     2.2137 H
67 O67    -7.6860    -3.4875     0.3813 O
68 C68    -7.4742    -4.8075     0.8737 C
69 H69    -6.9447    -5.3766     0.1041 H
70 H70    -8.4290    -5.3056     1.0740 H
71 H71    -6.8544    -4.7908     1.7767 H
72 C72     4.8033    -4.1053    -3.1406 C
73 H73     5.8877    -4.0622    -3.1023 H
74 H74     4.3119    -4.7226    -2.3976 H
75 H75     4.7078    -2.8201    -4.7832 H
76 C76     4.1358    -3.4168    -4.0734 C
77 C77     2.7033    -3.3682    -4.2581 C
78 C78     1.7746    -4.0010    -3.5331 C
79 H79     2.3659    -2.7423    -5.0831 H
80 H80     2.0059    -4.6440    -2.6954 H
81 O81     0.4398    -3.8683    -3.8163 O
82 C82    -0.3848    -4.6202    -2.9307 C
83 H83    -1.4276    -4.4625    -3.2208 H
84 H84    -0.2594    -4.2778    -1.8978 H
85 H85    -0.1641    -5.6903    -3.0085 H
86 C86    -2.4466    -1.7123    -5.9704 C
87 H87    -2.7260    -0.9048    -6.6405 H
88 H88    -1.4176    -1.7320    -5.6308 H
89 H89    -4.3677    -2.5299    -5.9889 H
90 C90    -3.3538    -2.6235    -5.6009 C
91 C91    -3.1440    -3.7513    -4.7220 C
92 C92    -2.0053    -4.0978    -4.1123 C
93 H93    -4.0221    -4.3728    -4.5520 H
94 H94    -1.0803    -3.5478    -4.2160 H
95 O95    -1.9416    -5.1994    -3.2986 O
96 C96    -0.6435    -5.3969    -2.7458 C
97 H97    -0.6754    -6.2888    -2.1134 H
98 H98    -0.3521    -4.5440    -2.1233 H
99 H99     0.0951    -5.5628    -3.5376 H
100 C100    -4.1986   -10.9042     0.2966 C
101 H101    -4.7124   -11.8603     0.3279 H
102 H102    -4.4407   -10.1931     1.0778 H
103 H103    -3.1295   -11.4190    -1.4213 H
104 C104    -3.3144   -10.6479    -0.6741 C
105 C105    -2.5519    -9.4338    -0.8559 C
106 C106    -2.5852    -8.3381    -0.0899 C
107 H107    -1.8842    -9.4334    -1.7163 H
108 H108    -3.2129    -8.2389     0.7846 H
109 O109    -1.8052    -7.2473    -0.3756 O
110 C110    -1.9859    -6.1861     0.5575 C
111 H111    -1.3336    -5.3591     0.2623 H
112 H112    -1.7033    -6.5037     1.5670 H
113 H113    -3.0213    -5.8290     0.5445 H
114 C114     1.7920    -4.5478     7.3038 C
115 H115     2.4989    -4.9354     8.0313 H
116 H116     2.0645    -4.6417     6.2591 H
117 H117     0.4515    -3.9326     8.7817 H
118 C118     0.6478    -3.9869     7.7113 C
119 C119    -0.3907    -3.4273     6.8765 C
120 C120    -0.4052    -3.3640     5.5407 C
121 H121    -1.2446    -3.0185     7.4149 H
122 H122     0.3924    -3.7408     4.9157 H
123 O123    -1.4595    -2.8032     4.8673 O
124 C124    -1.2839    -2.8328     3.4538 C
125 H125    -2.1612    -2.3703     2.9925 H
126 H126    -1.2089    -3.8643     3.0929 H
127 H127    -0.3981    -2.2592     3.1601 H
128 C128     3.3269    -2.6165    -0.9996 C
129 H129     3.7667    -3.3229    -0.3019 H
130 H130     2.3576    -2.8738    -1.4103 H
131 H131     4.9487    -1.3093    -0.8571 H
132 C132     3.9773    -1.4910    -1.3160 C
133 C133     3.5323    -0.4559    -2.2210 C
134 C134     2.3882    -0.4265    -2.9127 C
135 H135     4.2191     0.3814    -2.3369 H
136 H136     1.6418    -1.2071    -2.8671 H
137 O137     2.0861     0.6225    -3.7422 O
138 C138     0.8253     0.4650    -4.3865 C
139 H139     0.6590     1.3367    -5.0259 H
140 H140     0.0155     0.4189    -3.6502 H
141 H141     0.8203    -0.4304    -5.0174 H
142 C142     1.4485    -6.1907     2.9028 C
143 H143     2.5121    -6.0950     2.7058 H
144 H144     1.1595    -6.8348     3.7252 H
145 H145     0.9389    -4.9039     1.3397 H
146 C146     0.5630    -5.5312     2.1474 C
147 C147    -0.8761    -5.5515     2.2783 C
148 C148    -1.5946    -6.2322     3.1776 C
149 H149    -1.4133    -4.9389     1.5557 H
150 H150    -1.1572    -6.8672     3.9354 H
151 O151    -2.9638    -6.1634     3.1925 O
152 C152    -3.5404    -6.9589     4.2241 C
153 H153    -4.6275    -6.8508     4.1694 H
154 H154    -3.2098    -6.6157     5.2104 H
155 H155    -3.2924    -8.0166     4.0841 H
156 C156     3.9558    -0.4812     1.5862 C
157 H157     4.5354     0.4360     1.6313 H
158 H158     3.9515    -1.0109     0.6406 H
159 H159     3.3479    -0.3161     3.5767 H
160 C160     3.2902    -0.9094     2.6647 C
161 C161     2.4790    -2.1010     2.7683 C
162 C162     2.2401    -3.0001     1.8076 C
163 H163     2.0225    -2.2644     3.7435 H
164 H164     2.6456    -2.9289     0.8080 H
165 O165     1.4465    -4.0938     2.0393 O
166 C166     1.3166    -4.9284     0.8921 C
167 H167     0.6732    -5.7725     1.1568 H
168 H168     2.2917    -5.3220     0.5853 H
169 H169     0.8468    -4.3835     0.0661 H
170 C170    -0.8960    -8.2034     2.7070 C
171 H171    -1.2889    -8.8134     3.5150 H
172 H172    -0.2398    -7.3870     2.9852 H
173 H173    -1.8925    -9.3141     1.2466 H
174 C174    -1.2261    -8.4739     1.4391 C
175 C175    -0.7914    -7.7635     0.2580 C
176 C176     0.0217    -6.7029     0.2083 C
177 H177    -1.1805    -8.1512    -0.6824 H
178 H178     0.4596    -6.2437     1.0836 H
179 O179     0.3568    -6.1198    -0.9865 O
180 C180     1.2309    -5.0063    -0.8257 C
181 H181     1.4494    -4.5997    -1.8173 H
182 H182     2.1751    -5.3166    -0.3653 H
183 H183     0.7542    -4.2209    -0.2292 H
184 C184   -10.6938     1.6202    -3.4247 C
185 H185   -11.6550     1.6661    -3.9279 H
186 H186   -10.6938     1.7878    -2.3540 H
187 H187    -9.6700     1.2099    -5.1975 H
188 C188    -9.5811     1.3666    -4.1229 C
189 C189    -8.2345     1.2728    -3.6070 C
190 C190    -7.8454     1.4213    -2.3362 C
191 H191    -7.4696     1.0570    -4.3517 H
192 H192    -8.5257     1.6366    -1.5240 H
193 O193    -6.5269     1.3063    -1.9786 O
194 C194    -6.3200     1.4980    -0.5822 C
195 H195    -5.2505     1.3912    -0.3791 H
196 H196    -6.8578     0.7405    -0.0018 H
197 H197    -6.6291     2.5039    -0.2779 H
198 C198    -4.9303    -1.6760     6.5055 C
199 H199    -5.8407    -1.6972     7.0971 H
200 H200    -4.5291    -2.6324     6.1911 H
201 H201    -4.8258     0.4087     6.5532 H
202 C202    -4.3564    -0.5077     6.1967 C
203 C203    -3.1518    -0.3092     5.4233 C
204 C204    -2.3835    -1.2539     4.8705 C
205 H205    -2.8566     0.7304     5.2888 H
206 H206    -2.5900    -2.3124     4.9462 H
207 O207    -1.2593    -0.9278     4.1567 O
208 C208    -0.5807    -2.0739     3.6511 C
209 H209     0.2985    -1.7317     3.0976 H
210 H210    -1.2234    -2.6345     2.9636 H
211 H211    -0.2425    -2.7181     4.4699 H
212 C212     3.1254    -4.3690    -6.2679 C
213 H213     3.3598    -4.3814    -7.3281 H
214 H214     2.6112    -3.4926    -5.8910 H
215 H215     3.9846    -6.2454    -5.9513 H
216 C216     3.4692    -5.4027    -5.4914 C
217 C217     3.2315    -5.5399    -4.0725 C
218 C218     2.6241    -4.6614    -3.2678 C
219 H219     3.5950    -6.4673    -3.6319 H
220 H220     2.2289    -3.7140    -3.6069 H
221 O221     2.4623    -4.9165    -1.9305 O
222 C222     1.7932    -3.8594    -1.2489 C
223 H223     1.7038    -4.1375    -0.1948 H
224 H224     0.7856    -3.7129    -1.6528 H
225 H225     2.3696    -2.9301    -1.3118 H
226 C226    -1.9969    -6.3895     5.0523 C
227 H227    -1.4708    -7.3389     5.0862 H
228 H228    -2.6479    -6.1611     5.8881 H
229 H229    -1.1537    -5.8709     3.2140 H
230 C230    -1.8274    -5.5638     4.0134 C
231 C231    -2.4496    -4.2741     3.8184 C
232 C232    -3.3113    -3.6622     4.6378 C
233 H233    -2.1720    -3.7630     2.8976 H
234 H234    -3.6492    -4.0848     5.5737 H
235 O235    -3.8308    -2.4309     4.3317 O
236 C236    -4.7272    -1.9518     5.3300 C
237 H237    -5.0957    -0.9716     5.0138 H
238 H238    -4.2127    -1.8328     6.2896 H
239 H239    -5.5855    -2.6240     5.4367 H
240 C240     1.3109    -4.7178    -2.2522 C
241 H241     0.9900    -3.7200    -2.5364 H
242 H242     1.9006    -5.2667    -2.9771 H
243 H243     0.3812    -4.5967    -0.3867 H
244 C244     0.9771    -5.2161    -1.0564 C
245 C245     1.3226    -6.5170    -0.5304 C
246 C246     2.0403    -7.4680    -1.1379 C
247 H247     0.9473    -6.7238     0.4709 H
248 H248     2.4566    -7.3609    -2.1298 H
249 O249     2.2974    -8.6661    -0.5230 O
250 C250     3.0759    -9.5413    -1.3338 C
251 H251     3.2365   -10.4685    -0.7762 H
252 H252     4.0534    -9.0993    -1.5554 H
253 H253     2.5470    -9.7850    -2.2616 H
254 C254     3.4563    -3.4967    -6.6895 C
255 H255     3.6928    -3.5242    -7.7490 H
256 H256     2.8151    -4.2842    -6.3110 H
257 H257     4.5867    -1.7693    -6.3773 H
258 C258     3.9492    -2.5229    -5.9159 C
259 C259     3.7310    -2.3454    -4.4984 C
260 C260     2.9963    -3.1192    -3.6923 C
261 H261     4.2284    -1.4813    -4.0601 H
262 H262     2.4642    -3.9980    -4.0291 H
263 O263     2.8710    -2.8369    -2.3565 O
264 C264     2.0488    -3.7785    -1.6731 C
265 H265     1.9992    -3.4855    -0.6204 H
266 H266     2.4791    -4.7841    -1.7305 H
267 H267     1.0317    -3.7737    -2.0798 H
268 C268     0.0822    -6.4790    -2.3121 C
269 H269    -0.8075    -6.6055    -2.9218 H
270 H270     0.7742    -7.3123    -2.2780 H
271 H271    -0.4626    -4.5476    -1.7361 H
272 C272     0.2841    -5.3360    -1.6470 C
273 C273     1.4083    -5.0116    -0.7988 C
274 C274     2.4582    -5.7910    -0.5181 C
275 H275     1.3761    -4.0198    -0.3500 H
276 H276     2.5838    -6.7897    -0.9124 H
277 O277     3.4635    -5.3586     0.3078 O
278 C278     4.4877    -6.3339     0.4800 C
279 H279     5.2469    -5.9155     1.1470 H
280 H280     4.9639    -6.5708    -0.4776 H
281 H281     4.0859    -7.2419     0.9425 H
282 C282    -0.7668    -3.4619    -3.7592 C
283 H283    -1.7713    -3.7202    -4.0809 H
284 H284    -0.6274    -3.2637    -2.7029 H
285 H285     0.0025    -3.6142    -5.6942 H
286 C286     0.2292    -3.4000    -4.6502 C
287 C287     1.6119    -3.0732    -4.3860 C
288 C288     2.1574    -2.7711    -3.2029 C
289 H289     2.2621    -3.0797    -5.2597 H
290 H290     1.5986    -2.7376    -2.2781 H
291 O291     3.4920    -2.4784    -3.0898 O
292 C292     3.8759    -2.1843    -1.7497 C
293 H293     4.9471    -1.9630    -1.7437 H
294 H294     3.6989    -3.0458    -1.0967 H
295 H295     3.3408    -1.3046    -1.3762 H
296 C296     4.5060    -5.1479     4.2950 C
297 H297     5.1126    -5.1513     5.1956 H
298 H298     4.4797    -4.2254     3.7267 H
299 H299     3.9167    -7.1331     4.5611 H
300 C300     3.8353    -6.2471     3.9322 C
301 C301     2.9901    -6.4050     2.7707 C
302 C302     2.7183    -5.4842     1.8397 C
303 H303     2.5355    -7.3887     2.6618 H
304 H304     3.1189    -4.4803     1.8570 H
305 O305     1.8944    -5.7660     0.7808 O
306 C306     1.7321    -4.6555    -0.0968 C
307 H307     1.0659    -4.9590    -0.9096 H
308 H308     2.6930    -4.3601    -0.5318 H
309 H309     1.2730    -3.8100     0.4268 H
310 C310     2.6876     0.1889     3.9000 C
311 H311     3.7457    -0.0499     3.8498 H
312 H312     1.9954    -0.5953     3.6162 H
313 H313     3.0531     2.1338     4.5654 H
314 C314     2.2906     1.4030     4.2976 C
315 C315     0.9303     1.8758     4.4181 C
316 C316    -0.1879     1.1909     4.1555 C
317 H317     0.8286     2.9043     4.7615 H
318 H318    -0.1943     0.1664     3.8104 H
319 O319    -1.4244     1.7619     4.3126 O
320 C320    -2.4849     0.8699     3.9820 C
321 H321    -3.4316     1.3967     4.1324 H
322 H322    -2.4722    -0.0085     4.6363 H
323 H323    -2.4237     0.5656     2.9315 H
324 C324     0.5266    -6.4904    -0.0609 C
325 H325     0.4515    -6.1031    -1.0726 H
326 H326     0.6909    -7.5565     0.0437 H
327 H327     0.2522    -4.6041     0.7912 H
328 C328     0.4170    -5.6636     0.9851 C
329 C329     0.4932    -6.0180     2.3841 C
330 C330     0.6873    -7.2374     2.8978 C
331 H331     0.3772    -5.1860     3.0773 H
332 H332     0.8135    -8.1265     2.2959 H
333 O333     0.7393    -7.4374     4.2531 O
334 C334     0.9532    -8.8034     4.5967 C
335 H335     0.9820    -8.8791     5.6875 H
336 H336     1.9113    -9.1582     4.2018 H
337 H337     0.1327    -9.4296     4.2299 H
338 C338    -7.3166    -4.1198     1.4955 C
339 H339    -6.5561    -4.7964     1.1173 H
340 H340    -7.3321    -3.9509     2.5659 H
341 H341    -8.0930    -3.7636    -0.4096 H
342 C342    -8.1783    -3.5388     0.6531 C
343 C343    -9.2409    -2.6207     0.9941 C
344 C344    -9.5642    -2.1784     2.2141 C
345 H345    -9.8294    -2.2630     0.1504 H
346 H346    -9.0430    -2.4728     3.1143 H
347 O347   -10.6026    -1.3027     2.4005 O
348 C348   -10.7850    -0.9538     3.7696 C
349 H349   -11.6259    -0.2573     3.8338 H
350 H350    -9.8939    -0.4548     4.1656 H
351 H351   -11.0253    -1.8394     4.3678 H
352 C352     5.3702     3.6470    -1.9692 C
353 H353     6.3429     3.5629    -2.4446 H
354 H354     5.3586     3.9563    -0.9306 H
355 H355     4.3593     3.0697    -3.7024 H
356 C356     4.2582     3.3744    -2.6612 C
357 C357     2.8975     3.4376    -2.1786 C
358 C358     2.4922     3.7799    -0.9510 C
359 H359     2.1359     3.1738    -2.9111 H
360 H360     3.1679     4.0579    -0.1542 H
361 O361     1.1615     3.7992    -0.6215 O
362 C362     0.9382     4.1894     0.7303 C
363 H363    -0.1402     4.1799     0.9132 H
364 H364     1.3083     5.2049     0.9081 H
365 H365     1.4106     3.4834     1.4218 H
366 C366     2.7104     3.6021     0.2848 C
367 H367     2.0836     4.0032     1.0756 H
368 H368     2.8471     4.2227    -0.5931 H
369 H369     3.0834     1.8368     1.3354 H
370 C370     3.2725     2.3956     0.4193 C
371 C371     4.1266     1.7241    -0.5337 C
372 C372     4.5165     2.1804    -1.7288 C
373 H373     4.4792     0.7413    -0.2242 H
374 H374     4.2220     3.1414    -2.1270 H
375 O375     5.3338     1.4375    -2.5410 O
376 C376     5.6331     2.0978    -3.7673 C
377 H377     6.2850     1.4448    -4.3548 H
378 H378     6.1639     3.0381    -3.5831 H
379 H379     4.7197     2.2805    -4.3435 H
380 C380    -1.6992     3.5923    -1.8185 C
381 H381    -1.1451     2.9284    -2.4753 H
382 H382    -1.1552     4.4299    -1.3978 H
383 H383    -3.4623     2.4934    -2.0261 H
384 C384    -2.9912     3.3590    -1.5614 C
385 C385    -3.8635     4.1413    -0.7154 C
386 C386    -3.5455     5.2449    -0.0303 C
387 H387    -4.8861     3.7738    -0.6427 H
388 H388    -2.5599     5.6889    -0.0361 H
389 O389    -4.4745     5.8954     0.7401 O
390 C390    -3.9393     7.0460     1.3876 C
391 H391    -4.7370     7.5056     1.9782 H
392 H392    -3.5900     7.7787     0.6521 H
393 H393    -3.1259     6.7671     2.0661 H
394 C394    -4.2689    -5.5177     6.6365 C
395 H395    -3.9215    -5.5980     7.6622 H
396 H396    -4.3084    -6.4348     6.0604 H
397 H397    -4.5536    -3.4548     6.7863 H
398 C398    -4.6237    -4.3279     6.1383 C
399 C399    -5.1034    -4.0535     4.8030 C
400 C400    -5.2834    -4.9351     3.8136 C
401 H401    -5.3375    -3.0089     4.6029 H
402 H402    -5.0807    -5.9925     3.9109 H
403 O403    -5.7476    -4.5401     2.5856 O
404 C404    -5.8700    -5.6261     1.6717 C
405 H405    -6.2433    -5.2312     0.7224 H
406 H406    -6.5869    -6.3668     2.0419 H
407 H407    -4.8960    -6.0934     1.4906 H
408 C408   -10.1458    -7.5238    -1.2766 C
409 H409   -10.8497    -7.9770    -1.9682 H
410 H410   -10.1861    -7.8604    -0.2472 H
411 H411    -9.3092    -6.3153    -2.7595 H
412 C412    -9.2828    -6.5966    -1.7072 C
413 C413    -8.2896    -5.9023    -0.9199 C
414 C414    -8.0448    -6.0544     0.3860 C
415 H415    -7.6864    -5.1817    -1.4704 H
416 H416    -8.5870    -6.7424     1.0197 H
417 O417    -7.0668    -5.3282     1.0150 O
418 C418    -6.9638    -5.6356     2.4023 C
419 H419    -6.1672    -5.0192     2.8289 H
420 H420    -6.6997    -6.6886     2.5486 H
421 H421    -7.8979    -5.3994     2.9232 H
422 C422    -0.4053     4.0311    -0.2796 C
423 H423    -0.5394     4.4270     0.7226 H
424 H424     0.6146     3.9200    -0.6290 H
425 H425    -2.4613     3.8490    -0.5936 H
426 C426    -1.4697     3.7058    -1.0218 C
427 C427    -1.4617     3.1707    -2.3642 C
428 C428    -0.3909     2.8997    -3.1181 C
429 H429    -2.4456     2.9745    -2.7880 H
430 H430     0.6269     3.0587    -2.7901 H
431 O431    -0.5236     2.3912    -4.3844 O
432 C432     0.7322     2.1723    -5.0204 C
433 H433     0.5417     1.7688    -6.0191 H
434 H434     1.3286     1.4423    -4.4625 H
435 H435     1.2824     3.1132    -5.1287 H
@<TRIPOS>BOND
1 1 2 1
2 1 3 1
3 1 4 1
4 2 5 1
5 2 6 1
6 6 7 1
7 6 8 1
8 8 9 1
9 9 10 1
10 9 11 1
11 9 12 1
12 10 13 1
13 10 14 1
14 10 15 1
15 16 17 1
16 16 18 1
17 16 20 1
18 19 20 1
19 20 21 1
20 21 22 1
21 21 23 1
22 22 24 1
23 22 25 1
24 25 26 1
25 26 27 1
26 26 28 1
27 26 29 1
28 30 31 1
29 30 32 1
30 30 34 1
31 33 34 1
32 34 35 1
33 35 36 1
34 35 37 1
35 36 38 1
36 36 39 1
37 39 40 1
38 40 41 1
39 40 42 1
40 40 43 1
41 44 45 1
42 44 46 1
43 44 48 1
44 47 48 1
45 48 49 1
46 49 50 1
47 49 51 1
48 50 52 1
49 50 53 1
50 53 54 1
51 54 55 1
52 54 56 1
53 54 57 1
54 58 59 1
55 58 60 1
56 58 62 1
57 61 62 1
58 62 63 1
59 63 64 1
60 63 65 1
61 64 66 1
62 64 67 1
63 67 68 1
64 68 69 1
65 68 70 1
66 68 71 1
67 72 73 1
68 72 74 1
69 72 76 1
70 75 76 1
71 76 77 1
72 77 78 1
73 77 79 1
74 78 80 1
75 78 81 1
76 81 82 1
77 82 83 1
78 82 84 1
79 82 85 1
80 86 87 1
81 86 88 1
82 86 90 1
83 89 90 1
84 90 91 1
85 91 92 1
86 91 93 1
87 92 94 1
88 92 95 1
89 95 96 1
90 96 97 1
91 96 98 1
92 96 99 1
93 100 101 1
94 100 102 1
95 100 104 1
96 103 104 1
97 104 105 1
98 105 106 1
99 105 107 1
100 106 108 1
101 106 109 1
102 109 110 1
103 110 111 1
104 110 112 1
105 110 113 1
106 114 115 1
107 114 116 1
108 114 118 1
109 117 118 1
110 118 119 1
111 119 120 1
112 119 121 1
113 120 122 1
114 120 123 1
115 123 124 1
116 124 125 1
117 124 126 1
118 124 127 1
119 128 129 1
120 128 130 1
121 128 132 1
122 131 132 1
123 132 133 1
124 133 134 1
125 133 135 1
126 134 136 1
127 134 137 1
128 137 138 1
129 138 139 1
130 138 140 1
131 138 141 1
132 142 143 1
133 142 144 1
134 142 146 1
135 145 146 1
136 146 147 1
137 147 148 1
138 147 149 1
139 148 150 1
140 148 151 1
141 151 152 1
142 152 153 1
143 152 154 1
144 152 155 1
145 156 157 1
146 156 158 1
147 156 160 1
148 159 160 1
149 160 161 1
150 161 162 1
151 161 163 1
152 162 164 1
153 162 165 1
154 165 166 1
155 166 167 1
156 166 168 1
157 166 169 1
158 170 171 1
159 170 172 1
160 170 174 1
161 173 174 1
162 174 175 1
163 175 176 1
164 175 177 1
165 176 178 1
166 176 179 1
167 179 180 1
168 180 181 1
169 180 182 1
170 180 183 1
171 184 185 1
172 184 186 1
173 184 188 1
174 187 188 1
175 188 189 1
176 189 190 1
177 189 191 1
178 190 192 1
179 190 193 1
180 193 194 1
181 194 195 1
182 194 196 1
183 194 197 1
184 198 199 1
185 198 200 1
186 198 202 1
187 201 202 1
188 202 203 1
189 203 204 1
190 203 205 1
191 204 206 1
192 204 207 1
193 207 208 1
194 208 209 1
195 208 210 1
196 208 211 1
197 212 213 1
198 212 214 1
199 212 216 1
200 215 216 1
201 216 217 1
202 217 218 1
203 217 219 1
204 218 220 1
205 218 221 1
206 221 222 1
207 222 223 1
208 222 224 1
209 222 225 1
210 226 227 1
211 226 228 1
212 226 230 1
213 229 230 1
214 230 231 1
215 231 232 1
216 231 233 1
217 232 234 1
218 232 235 1
219 235 236 1
220 236 237 1
221 236 238 1
222 236 239 1
223 240 241 1
224 240 242 1
225 240 244 1
226 243 244 1
227 244 245 1
228 245 246 1
229 245 247 1
230 246 248 1
231 246 249 1
232 249 250 1
233 250 251 1
234 250 252 1
235 250 253 1
236 254 255 1
237 254 256 1
238 254 258 1
239 257 258 1
240 258 259 1
241 259 260 1
242 259 261 1
243 260 262 1
244 260 263 1
245 263 264 1
246 264 265 1
247 264 266 1
248 264 267 1
249 268 269 1
250 268 270 1
251 268 272 1
252 271 272 1
253 272 273 1
254 273 274 1
255 273 275 1
256 274 276 1
257 274 277 1
258 277 278 1
259 278 279 1
260 278 280 1
261 278 281 1
262 282 283 1
263 282 284 1
264 282 286 1
265 285 286 1
266 286 287 1
267 287 288 1
268 287 289 1
269 288 290 1
270 288 291 1
271 291 292 1
272 292 293 1
273 292 294 1
274 292 295 1
275 296 297 1
276 296 298 1
277 296 300 1
278 299 300 1
279 300 301 1
280 301 302 1
281 301 303 1
282 302 304 1
283 302 305 1
284 305 306 1
285 306 307 1
286 306 308 1
287 306 309 1
288 310 311 1
289 310 312 1
290 310 314 1
291 313 314 1
292 314 315 1
293 315 316 1
294 315 317 1
295 316 318 1
296 316 319 1
297 319 320 1
298 320 321 1
299 320 322 1
300 320 323 1
301 324 325 1
302 324 326 1
303 324 328 1
304 327 328 1
305 328 329 1
306 329 330 1
307 329 331 1
308 330 332 1
309 330 333 1
310 333 334 1
311 334 335 1
312 334 336 1
313 334 337 1
314 338 339 1
315 338 340 1
316 338 342 1
317 341 342 1
318 342 343 1
319 343 344 1
320 343 345 1
321 344 346 1
322 344 347 1
323 347 348 1
324 348 349 1
325 348 350 1
326 348 351 1
327 352 353 1
328 352 354 1
329 352 356 1
330 355 356 1
331 356 357 1
332 357 358 1
333 357 359 1
334 358 360 1
335 358 361 1
336 361 362 1
337 362 363 1
338 362 364 1
339 362 365 1
340 366 367 1
341 366 368 1
342 366 370 1
343 369 370 1
344 370 371 1
345 371 372 1
346 371 373 1
347 372 374 1
348 372 375 1
349 375 376 1
350 376 377 1
351 376 378 1
352 376 379 1
353 380 381 1
354 380 382 1
355 380 384 1
356 383 384 1
357 384 385 1
358 385 386 1
359 385 387 1
360 386 388 1
361 386 389 1
362 389 390 1
363 390 391 1
364 390 392 1
365 390 393 1
366 394 395 1
367 394 396 1
368 394 398 1
369 397 398 1
370 398 399 1
371 399 400 1
372 399 401 1
373 400 402 1
374 400 403 1
375 403 404 1
376 404 405 1
377 404 406 1
378 404 407 1
379 408 409 1
380 408 410 1
381 408 412 1
382 411 412 1
383 412 413 1
384 413 414 1
385 413 415 1
386 414 416 1
387 414 417 1
388 417 418 1
389 418 419 1
390 418 420 1
391 418 421 1
392 422 423 1
393 422 424 1
394 422 426 1
395 425 426 1
396 426 427 1
397 427 428 1
398 427 429 1
399 428 430 1
400 428 431 1
401 431 432 1
402 432 433 1
403 432 434 1
404 432 435 1
