# Title
# Created by GaussView 5.0.8
#

#
#

@<TRIPOS>MOLECULE
Molecule Name
1289 1197
SMALL
NO_CHARGES


@<TRIPOS>ATOM
1 C1     0.0000     0.0000     0.0000 C
2 C2    -1.3390     0.0000     0.0000 C
3 H3     0.5559     0.9314     0.0000 H
4 H4     0.5686    -0.9265    -0.0001 H
5 H5    -1.9061     0.9226    -0.0001 H
6 C6    -2.0971    -1.2694    -0.0002 C
7 O7    -1.6031    -2.3842    -0.0014 O
8 O8    -3.4183    -0.9633    -0.0029 O
9 C9    -4.3117    -2.0860     0.0018 C
10 C10    -4.5751    -2.5519    -1.4179 C
11 H11    -5.2481    -1.7477     0.4576 H
12 H12    -3.9261    -2.9004     0.6260 H
13 H13    -4.9608    -1.7282    -2.0275 H
14 H14    -5.3011    -3.3697    -1.4293 H
15 H15    -3.6526    -2.8968    -1.8957 H
16 C16     2.6835    -3.9729     2.2836 C
17 H17     3.0444    -3.8799     3.3036 H
18 H18     1.6297    -3.7812     2.1183 H
19 H19     4.5714    -4.4853     1.5537 H
20 C20     3.5262    -4.3099     1.3007 C
21 C21     3.2066    -4.4740    -0.0991 C
22 C22     2.0102    -4.3206    -0.6767 C
23 H23     4.0464    -4.7531    -0.7340 H
24 H24     1.1159    -4.0457    -0.1352 H
25 O25     1.8425    -4.5078    -2.0245 O
26 C26     0.4971    -4.2972    -2.4429 C
27 H27     0.4467    -4.4646    -3.5226 H
28 H28     0.1833    -3.2677    -2.2393 H
29 H29    -0.1780    -5.0071    -1.9528 H
30 C30    -3.0108    -7.1695    -7.1907 C
31 H31    -3.3710    -7.6626    -8.0887 H
32 H32    -2.1722    -7.6309    -6.6824 H
33 H33    -4.4355    -5.6497    -7.3302 H
34 C34    -3.5970    -6.0471    -6.7591 C
35 C35    -3.2405    -5.2749    -5.5907 C
36 C36    -2.2588    -5.5353    -4.7206 C
37 H37    -3.8508    -4.3893    -5.4197 H
38 H38    -1.5987    -6.3875    -4.8016 H
39 O39    -2.0253    -4.7157    -3.6467 O
40 C40    -0.9388    -5.1646    -2.8419 C
41 H41    -0.8175    -4.4623    -2.0121 H
42 H42    -0.0078    -5.1795    -3.4189 H
43 H43    -1.1470    -6.1562    -2.4258 H
44 C44     6.8323    -4.3511     1.7554 C
45 H45     7.9074    -4.4914     1.8171 H
46 H46     6.2218    -4.9521     2.4193 H
47 H47     7.0037    -2.9059     0.2584 H
48 C48     6.3181    -3.4699     0.8900 C
49 C49     4.9197    -3.1673     0.6864 C
50 C50     3.8761    -3.7095     1.3231 C
51 H51     4.7172    -2.4130    -0.0726 H
52 H52     3.9708    -4.4645     2.0911 H
53 O53     2.5911    -3.3304     1.0323 O
54 C54     1.6253    -4.0232     1.8176 C
55 H55     0.6325    -3.6669     1.5278 H
56 H56     1.7683    -3.8140     2.8833 H
57 H57     1.6723    -5.1013     1.6296 H
58 C58     3.3840    -2.4762     0.3004 C
59 H59     4.1397    -1.7358     0.5450 H
60 H60     2.8043    -2.8742     1.1252 H
61 H61     3.8288    -2.4066    -1.7383 H
62 C62     3.2024    -2.8572    -0.9690 C
63 C63     2.2459    -3.8242    -1.4573 C
64 C64     1.3622    -4.5206    -0.7343 C
65 H65     2.2644    -3.9877    -2.5339 H
66 H66     1.2647    -4.4308     0.3386 H
67 O67     0.5056    -5.4126    -1.3259 O
68 C68    -0.3544    -6.0507    -0.3864 C
69 H69    -1.0022    -6.7419    -0.9333 H
70 H70    -0.9874    -5.3159     0.1228 H
71 H71     0.2256    -6.6268     0.3427 H
72 C72    -4.2884    -7.9450     4.3411 C
73 H73    -4.4942    -8.3357     5.3332 H
74 H74    -3.2788    -8.0680     3.9668 H
75 H75    -6.2461    -7.2636     4.0916 H
76 C76    -5.2577    -7.3456     3.6405 C
77 C77    -5.1477    -6.7765     2.3167 C
78 C78    -4.0581    -6.7410     1.5421 C
79 H79    -6.0636    -6.3341     1.9276 H
80 H80    -3.1022    -7.1517     1.8357 H
81 O81    -4.0894    -6.1668     0.2975 O
82 C82    -2.8305    -6.2307    -0.3664 C
83 H83    -2.9379    -5.7550    -1.3455 H
84 H84    -2.5249    -7.2712    -0.5211 H
85 H85    -2.0653    -5.6871     0.1982 H
86 C86     1.5303    -3.2815     4.4920 C
87 H87     1.5590    -2.8405     5.4840 H
88 H88     0.6064    -3.7661     4.1988 H
89 H89     3.4920    -2.7060     4.0678 H
90 C90     2.6022    -3.2122     3.6945 C
91 C91     2.7252    -3.7444     2.3566 C
92 C92     1.7927    -4.4059     1.6628 C
93 H93     3.6905    -3.5769     1.8808 H
94 H94     0.8049    -4.6227     2.0449 H
95 O95     2.0404    -4.8602     0.3932 O
96 C96     0.9227    -5.5382    -0.1730 C
97 H97     1.1986    -5.8674    -1.1790 H
98 H98     0.0613    -4.8666    -0.2550 H
99 H99     0.6635    -6.4225     0.4192 H
100 C100    -1.0593    -4.5131     6.1663 C
101 H101    -1.1632    -4.1058     7.1675 H
102 H102    -0.6091    -3.8685     5.4204 H
103 H103    -1.9192    -6.3369     6.7081 H
104 C104    -1.4774    -5.7556     5.8994 C
105 C105    -1.4112    -6.4400     4.6283 C
106 C106    -0.9205    -5.9623     3.4796 C
107 H107    -1.8099    -7.4535     4.6292 H
108 H108    -0.5029    -4.9707     3.3744 H
109 O109    -0.9177    -6.7213     2.3379 O
110 C110    -0.3538    -6.0334     1.2250 C
111 H111    -0.3881    -6.7013     0.3595 H
112 H112     0.6928    -5.7739     1.4181 H
113 H113    -0.9336    -5.1345     0.9891 H
114 C114     3.6207    -6.2183     2.3781 C
115 H115     4.4342    -6.2287     3.0973 H
116 H116     3.1232    -5.2692     2.2162 H
117 H117     3.8270    -8.2537     1.9610 H
118 C118     3.2741    -7.3414     1.7391 C
119 C119     2.2222    -7.4943     0.7600 C
120 C120     1.3971    -6.5441     0.3076 C
121 H121     2.1070    -8.5010     0.3608 H
122 H122     1.4300    -5.5159     0.6400 H
123 O123     0.4357    -6.8246    -0.6287 O
124 C124    -0.3379    -5.6805    -0.9782 C
125 H125    -1.0773    -5.9851    -1.7246 H
126 H126     0.2953    -4.9028    -1.4187 H
127 H127    -0.8714    -5.2903    -0.1047 H
128 C128    -3.4549    -8.6279     1.4275 C
129 H129    -4.0323    -9.1713     2.1695 H
130 H130    -3.1110    -7.6382     1.7042 H
131 H131    -3.5816   -10.1834     0.0405 H
132 C132    -3.1979    -9.1828     0.2376 C
133 C133    -2.4497    -8.5963    -0.8508 C
134 C134    -1.8732    -7.3899    -0.8753 C
135 H135    -2.3581    -9.2225    -1.7372 H
136 H136    -1.9065    -6.6945    -0.0482 H
137 O137    -1.1880    -6.9520    -1.9791 O
138 C138    -0.6499    -5.6443    -1.8059 C
139 H139    -0.1220    -5.3695    -2.7237 H
140 H140     0.0670    -5.6255    -0.9779 H
141 H141    -1.4489    -4.9144    -1.6369 H
142 C142    -2.3598    -7.9306     2.4602 C
143 H143    -2.5120    -8.2873     3.4745 H
144 H144    -1.5975    -7.1736     2.3173 H
145 H145    -3.8413    -9.1828     1.6881 H
146 C146    -3.0953    -8.4230     1.4571 C
147 C147    -3.0167    -8.0568     0.0613 C
148 C148    -2.1953    -7.1579    -0.4917 C
149 H149    -3.7108    -8.5825    -0.5929 H
150 H150    -1.4713    -6.5845     0.0702 H
151 O151    -2.2233    -6.9037    -1.8386 O
152 C152    -1.2735    -5.9162    -2.2289 C
153 H153    -1.3581    -5.7715    -3.3098 H
154 H154    -0.2537    -6.2477    -2.0049 H
155 H155    -1.4819    -4.9602    -1.7364 H
156 C156    -3.8236    -7.4835     4.2320 C
157 H157    -3.9289    -8.5582     4.3460 H
158 H158    -2.8389    -7.0670     4.4096 H
159 H159    -5.8346    -7.2368     3.7277 H
160 C160    -4.8794    -6.7375     3.8877 C
161 C161    -4.9057    -5.3053     3.6966 C
162 C162    -3.8816    -4.4552     3.8274 C
163 H163    -5.8749    -4.8955     3.4160 H
164 H164    -2.8818    -4.7614     4.1019 H
165 O165    -4.0431    -3.1103     3.6159 O
166 C166    -2.8358    -2.3779     3.8050 C
167 H167    -3.0467    -1.3208     3.6190 H
168 H168    -2.0674    -2.7053     3.0963 H
169 H169    -2.4758    -2.4809     4.8344 H
170 C170     6.4210    -5.7052    -0.9106 C
171 H171     7.4836    -5.9240    -0.9582 H
172 H172     5.7499    -6.4465    -1.3286 H
173 H173     6.7363    -3.8740     0.0414 H
174 C174     5.9937    -4.5655    -0.3555 C
175 C175     4.6235    -4.1281    -0.2150 C
176 C176     3.5245    -4.7784    -0.6124 C
177 H177     4.4957    -3.1613     0.2699 H
178 H178     3.5443    -5.7419    -1.1022 H
179 O179     2.2754    -4.2480    -0.4173 O
180 C180     1.2394    -5.0927    -0.9099 C
181 H181     0.2807    -4.6023    -0.7177 H
182 H182     1.2432    -6.0566    -0.3896 H
183 H183     1.3394    -5.2408    -1.9906 H
184 C184    -0.6771    -7.4228     3.4234 C
185 H185     0.1633    -8.0765     3.2099 H
186 H186    -1.3259    -7.7118     4.2419 H
187 H187    -0.1732    -6.1032     1.8858 H
188 C188    -0.8739    -6.3204     2.6915 C
189 C189    -1.9368    -5.3535     2.8460 C
190 C190    -2.9237    -5.3770     3.7483 C
191 H191    -1.9117    -4.5242     2.1405 H
192 H192    -3.0368    -6.1550     4.4903 H
193 O193    -3.8750    -4.3905     3.7868 O
194 C194    -4.8364    -4.5976     4.8175 C
195 H195    -5.5553    -3.7739     4.7823 H
196 H196    -4.3573    -4.5941     5.8025 H
197 H197    -5.3798    -5.5355     4.6595 H
198 C198     4.8772    -1.7501    -4.4681 C
199 H199     5.6651    -1.2739    -5.0440 H
200 H200     3.8917    -1.7789    -4.9182 H
201 H201     6.1629    -2.1953    -2.8844 H
202 C202     5.1438    -2.2669    -3.2633 C
203 C203     4.2139    -2.9290    -2.3771 C
204 C204     2.9127    -3.1504    -2.5926 C
205 H205     4.6408    -3.2772    -1.4376 H
206 H206     2.3951    -2.8448    -3.4912 H
207 O207     2.1380    -3.7948    -1.6630 O
208 C208     0.7829    -3.9319    -2.0805 C
209 H209     0.2345    -4.4522    -1.2898 H
210 H210     0.7167    -4.5299    -2.9958 H
211 H211     0.3211    -2.9500    -2.2306 H
212 C212     0.4362   -10.9923    -2.5598 C
213 H213     0.6955   -12.0126    -2.8262 H
214 H214     0.8995   -10.2027    -3.1397 H
215 H215    -0.8389   -11.6083    -1.0255 H
216 C216    -0.4180   -10.7557    -1.5577 C
217 C217    -0.8629    -9.4657    -1.0820 C
218 C218    -0.5061    -8.2657    -1.5522 C
219 H219    -1.5647    -9.4983    -0.2498 H
220 H220     0.1829    -8.1262    -2.3735 H
221 O221    -1.0056    -7.1114    -1.0066 O
222 C222    -0.5040    -5.9418    -1.6469 C
223 H223    -0.9467    -5.0697    -1.1572 H
224 H224    -0.7896    -5.9246    -2.7042 H
225 H225     0.5847    -5.8786    -1.5436 H
226 C226    -8.3669    -1.2988     4.2320 C
227 H227    -9.4147    -1.0323     4.3333 H
228 H228    -7.6411    -0.5452     4.5144 H
229 H229    -8.8159    -3.2076     3.5149 H
230 C230    -8.0221    -2.5086     3.7768 C
231 C231    -6.6823    -3.0150     3.5849 C
232 C232    -5.5348    -2.3717     3.8254 C
233 H233    -6.6247    -4.0330     3.2021 H
234 H234    -5.4844    -1.3609     4.2054 H
235 O235    -4.3229    -2.9713     3.5986 O
236 C236    -3.2242    -2.1220     3.9167 C
237 H237    -2.3002    -2.6696     3.7098 H
238 H238    -3.2348    -1.8539     4.9787 H
239 H239    -3.2367    -1.2207     3.2943 H
240 C240     3.0223    -7.9139    -5.1474 C
241 H241     3.6465    -8.4080    -5.8859 H
242 H242     3.5323    -7.3621    -4.3665 H
243 H243     1.2577    -8.5773    -6.0448 H
244 C244     1.6897    -8.0018    -5.2267 C
245 C245     0.7252    -7.4070    -4.3299 C
246 C246     0.9809    -6.6570    -3.2526 C
247 H247    -0.3170    -7.6039    -4.5775 H
248 H248     1.9791    -6.4047    -2.9231 H
249 O249    -0.0338    -6.1506    -2.4821 O
250 C250     0.4455    -5.3804    -1.3836 C
251 H251    -0.4190    -5.0145    -0.8221 H
252 H252     1.0182    -4.5156    -1.7356 H
253 H253     1.0552    -5.9963    -0.7137 H
254 C254    -1.9208    -5.0825     4.9509 C
255 H255    -1.8354    -4.8251     6.0024 H
256 H256    -1.0216    -5.4348     4.4591 H
257 H257    -3.9506    -4.5969     4.8914 H
258 C258    -3.0951    -4.9590     4.3220 C
259 C259    -3.3735    -5.2574     2.9356 C
260 C260    -2.5118    -5.7128     2.0199 C
261 H261    -4.4031    -5.0854     2.6249 H
262 H262    -1.4703    -5.9150     2.2274 H
263 O263    -2.9083    -5.9564     0.7302 O
264 C264    -1.8449    -6.4357    -0.0878 C
265 H265    -2.2396    -6.6046    -1.0938 H
266 H266    -1.4587    -7.3867     0.2945 H
267 H267    -1.0408    -5.6948    -0.1536 H
268 C268    -2.6169     0.6019     7.4297 C
269 H269    -2.7965     1.3133     8.2302 H
270 H270    -1.6526     0.6527     6.9376 H
271 H271    -4.5045    -0.2655     7.6383 H
272 C272    -3.5621    -0.2825     7.0918 C
273 C273    -3.4805    -1.2882     6.0572 C
274 C274    -2.4467    -1.5255     5.2427 C
275 H275    -4.3687    -1.9087     5.9465 H
276 H276    -1.5218    -0.9665     5.2722 H
277 O277    -2.4997    -2.5172     4.2975 O
278 C278    -1.3010    -2.6092     3.5332 C
279 H279    -1.4223    -3.4177     2.8065 H
280 H280    -0.4475    -2.8497     4.1762 H
281 H281    -1.1171    -1.6788     2.9851 H
282 C282   -10.4660    -6.3387     2.4700 C
283 H283   -11.4416    -6.4169     2.9404 H
284 H284    -9.7455    -7.1130     2.7067 H
285 H285   -10.9803    -4.5860     1.4588 H
286 C286   -10.1983    -5.3222     1.6425 C
287 C287    -8.9587    -5.0760     0.9417 C
288 C288    -7.8457    -5.8161     0.9872 C
289 H289    -8.9528    -4.1858     0.3143 H
290 H290    -7.7501    -6.7162     1.5783 H
291 O291    -6.7312    -5.4683     0.2684 O
292 C292    -5.6545    -6.3830     0.4519 C
293 H293    -4.8090    -6.0381    -0.1503 H
294 H294    -5.9337    -7.3857     0.1105 H
295 H295    -5.3414    -6.4094     1.5012 H
296 C296     3.5378    -5.7212     3.1941 C
297 H297     4.4702    -6.2317     2.9722 H
298 H298     2.7314    -5.8436     2.4804 H
299 H299     4.2835    -4.9134     4.9691 H
300 C300     3.4230    -4.9838     4.3044 C
301 C301     2.2590    -4.2469     4.7412 C
302 C302     1.0779    -4.1623     4.1197 C
303 H303     2.3795    -3.7097     5.6809 H
304 H304     0.8579    -4.6572     3.1840 H
305 O305     0.0494    -3.4240     4.6457 O
306 C306    -1.1214    -3.4614     3.8349 C
307 H307    -1.8901    -2.8526     4.3195 H
308 H308    -1.4995    -4.4856     3.7451 H
309 H309    -0.9218    -3.0390     2.8441 H
310 C310    -2.7527    -4.1185     5.3713 C
311 H311    -3.0512    -3.5940     6.2741 H
312 H312    -3.2945    -3.8777     4.4641 H
313 H313    -1.2666    -5.1962     6.3659 H
314 C314    -1.7592    -5.0135     5.4113 C
315 C315    -1.2454    -5.7908     4.3066 C
316 C316    -1.6647    -5.7630     3.0370 C
317 H317    -0.4285    -6.4656     4.5584 H
318 H318    -2.4670    -5.1292     2.6861 H
319 O319    -1.0869    -6.5572     2.0804 O
320 C320    -1.6745    -6.3804     0.7947 C
321 H321    -1.1619    -7.0442     0.0924 H
322 H322    -1.5482    -5.3491     0.4480 H
323 H323    -2.7358    -6.6511     0.8117 H
324 C324     4.6834    -2.3370    -5.3775 C
325 H325     5.2717    -1.9807    -6.2179 H
326 H326     3.6393    -2.5554    -5.5691 H
327 H327     6.3081    -2.2455    -4.0694 H
328 C328     5.2512    -2.4881    -4.1757 C
329 C329     4.6113    -2.9487    -2.9645 C
330 C330     3.3326    -3.3106    -2.8153 C
331 H331     5.2598    -2.9986    -2.0909 H
332 H332     2.6097    -3.2968    -3.6191 H
333 O333     2.8499    -3.7314    -1.6031 O
334 C334     1.4672    -4.0709    -1.6527 C
335 H335     1.1605    -4.3945    -0.6539 H
336 H336     1.2946    -4.8976    -2.3503 H
337 H337     0.8632    -3.2011    -1.9331 H
338 C338     7.7915    -1.7855    -0.0402 C
339 H339     8.8323    -1.5243     0.1259 H
340 H340     7.5333    -2.8356     0.0324 H
341 H341     7.2396     0.2003    -0.3737 H
342 C342     6.8955    -0.8321    -0.3193 C
343 C343     5.4829    -1.0128    -0.5649 C
344 C344     4.8043    -2.1652    -0.5597 C
345 H345     4.9308    -0.0978    -0.7747 H
346 H346     5.2592    -3.1259    -0.3629 H
347 O347     3.4567    -2.1974    -0.8101 O
348 C348     2.9221    -3.5169    -0.7585 C
349 H349     1.8500    -3.4578    -0.9676 H
350 H350     3.0548    -3.9515     0.2382 H
351 H351     3.3862    -4.1544    -1.5188 H
352 C352     0.8886    -8.7300    -3.6774 C
353 H353     0.6418    -9.7003    -4.0978 H
354 H354     0.3630    -8.4400    -2.7750 H
355 H355     2.2846    -8.3217    -5.1753 H
356 C356     1.8028    -7.9536    -4.2700 C
357 C357     2.2413    -6.6453    -3.8404 C
358 C358     1.8173    -5.9635    -2.7708 C
359 H359     2.9997    -6.1833    -4.4709 H
360 H360     1.0693    -6.3338    -2.0838 H
361 O361     2.3190    -4.7225    -2.4745 O
362 C362     1.7399    -4.1648    -1.2984 C
363 H363     2.1895    -3.1818    -1.1313 H
364 H364     1.9510    -4.7925    -0.4259 H
365 H365     0.6596    -4.0324    -1.4222 H
366 C366     4.1699     1.6969     2.5300 C
367 H367     4.4476     2.7159     2.7825 H
368 H368     3.9592     1.0284     3.3566 H
369 H369     4.3284     2.0531     0.4788 H
370 C370     4.1004     1.3170     1.2491 C
371 C371     3.7486     0.0074     0.7495 C
372 C372     3.4262    -1.0714     1.4712 C
373 H373     3.7529    -0.0885    -0.3354 H
374 H374     3.3928    -1.0796     2.5517 H
375 O375     3.1107    -2.2615     0.8681 O
376 C376     2.7975    -3.2851     1.8082 C
377 H377     2.5587    -4.1961     1.2518 H
378 H378     1.9230    -3.0085     2.4070 H
379 H379     3.6553    -3.4929     2.4568 H
380 C380    -9.7154    -1.6229     5.6221 C
381 H381   -10.7224    -1.6002     6.0280 H
382 H382    -8.9024    -1.4697     6.3222 H
383 H383   -10.3959    -1.9774     3.6803 H
384 C384    -9.5222    -1.8324     4.3150 C
385 C385    -8.2549    -1.8913     3.6229 C
386 C386    -7.0370    -1.7478     4.1564 C
387 H387    -8.3231    -2.0732     2.5512 H
388 H388    -6.8627    -1.5646     5.2075 H
389 O389    -5.9083    -1.8265     3.3822 O
390 C390    -4.7135    -1.6471     4.1371 C
391 H391    -3.8640    -1.7234     3.4523 H
392 H392    -4.6133    -2.4287     4.8980 H
393 H393    -4.6926    -0.6555     4.6021 H
394 C394    -1.6210     1.9152     7.0457 C
395 H395    -1.6166     2.7320     7.7613 H
396 H396    -0.6770     1.4115     6.8727 H
397 H397    -3.6609     2.1311     6.6568 H
398 C398    -2.7550     1.5720     6.4245 C
399 C399    -2.9277     0.5166     5.4525 C
400 C400    -1.9887    -0.3160     4.9904 C
401 H401    -3.9407     0.4052     5.0682 H
402 H402    -0.9557    -0.2874     5.3080 H
403 O403    -2.2879    -1.2800     4.0626 O
404 C404    -1.1533    -2.0616     3.7004 C
405 H405    -1.4726    -2.8026     2.9619 H
406 H406    -0.7537    -2.5934     4.5707 H
407 H407    -0.3784    -1.4348     3.2460 H
408 C408     0.6539    -3.5640    -6.2310 C
409 H409     0.5795    -3.2775    -7.2758 H
410 H410    -0.0991    -4.2477    -5.8567 H
411 H411     2.3566    -2.3950    -5.9254 H
412 C412     1.6405    -3.0779    -5.4694 C
413 C413     1.8775    -3.3586    -4.0717 C
414 C414     1.1571    -4.1560    -3.2757 C
415 H415     2.7419    -2.8555    -3.6407 H
416 H416     0.2830    -4.6992    -3.6067 H
417 O417     1.4929    -4.3367    -1.9588 O
418 C418     0.6031    -5.2209    -1.2836 C
419 H419     0.9366    -5.3119    -0.2458 H
420 H420     0.6235    -6.2164    -1.7401 H
421 H421    -0.4166    -4.8208    -1.2834 H
422 C422    -4.6035     3.0581     4.3118 C
423 H423    -3.8994     3.6616     4.8768 H
424 H424    -5.5720     2.8832     4.7657 H
425 H425    -3.2652     2.7926     2.7314 H
426 C426    -4.2602     2.5688     3.1149 C
427 C427    -5.0758     1.7543     2.2432 C
428 C428    -6.3261     1.3358     2.4669 C
429 H429    -4.6003     1.4612     1.3082 H
430 H430    -6.8844     1.5720     3.3619 H
431 O431    -6.9911     0.5623     1.5508 O
432 C432    -8.3078     0.2220     1.9752 C
433 H433    -8.7686    -0.3911     1.1953 H
434 H434    -8.9175     1.1220     2.1104 H
435 H435    -8.2789    -0.3632     2.9007 H
436 C436     1.5700    -5.8688    -2.4865 C
437 H437     2.5793    -5.4750    -2.4125 H
438 H438     1.4142    -6.6880    -3.1787 H
439 H439     0.8309    -4.5217    -1.0728 H
440 C440     0.5880    -5.3447    -1.7443 C
441 C441    -0.7985    -5.7518    -1.7258 C
442 C442    -1.3623    -6.7277    -2.4456 C
443 H443    -1.4350    -5.1890    -1.0444 H
444 H444    -0.8180    -7.3429    -3.1485 H
445 O445    -2.6984    -7.0134    -2.3321 O
446 C446    -3.1030    -8.0837    -3.1808 C
447 H447    -4.1741    -8.2489    -3.0325 H
448 H448    -2.5734    -9.0069    -2.9217 H
449 H449    -2.9365    -7.8296    -4.2332 H
450 C450    -1.3663     1.9714     6.1987 C
451 H451    -1.1895     2.8841     6.7599 H
452 H452    -1.0547     1.0433     6.6637 H
453 H453    -2.2266     3.0003     4.5986 H
454 C454    -1.9437     2.0249     4.9931 C
455 C455    -2.2465     0.9100     4.1249 C
456 C456    -2.0074    -0.3845     4.3612 C
457 H457    -2.7205     1.1762     3.1812 H
458 H458    -1.5423    -0.7511     5.2656 H
459 O459    -2.3468    -1.3482     3.4470 O
460 C460    -2.0099    -2.6611     3.8856 C
461 H461    -2.3105    -3.3674     3.1063 H
462 H462    -2.5485    -2.9139     4.8053 H
463 H463    -0.9291    -2.7551     4.0368 H
464 C464     2.3299     4.0258     1.4355 C
465 H465     3.1938     4.5402     1.0253 H
466 H466     2.5128     3.3381     2.2529 H
467 H467     1.0154     4.9608     0.1100 H
468 C468     1.1111     4.2529     0.9328 C
469 C469    -0.1315     3.6536     1.3632 C
470 C470    -0.2988     2.7600     2.3439 C
471 H471    -1.0145     3.9798     0.8155 H
472 H472     0.5121     2.3737     2.9455 H
473 O473    -1.5407     2.2680     2.6527 O
474 C474    -1.5066     1.3299     3.7244 C
475 H475    -2.5287     0.9867     3.9085 H
476 H476    -1.1311     1.7993     4.6401 H
477 H477    -0.8941     0.4609     3.4610 H
478 C478    -3.8265    -7.0387     1.6708 C
479 H479    -4.4003    -7.2611     2.5655 H
480 H480    -3.9624    -6.0561     1.2344 H
481 H481    -2.9224    -8.9207     1.6589 H
482 C482    -2.9998    -7.9566     1.1571 C
483 C483    -2.1719    -7.8185    -0.0193 C
484 C484    -2.0751    -6.7490    -0.8164 C
485 H485    -1.5700    -8.6924    -0.2645 H
486 H486    -2.6294    -5.8343    -0.6594 H
487 O487    -1.2458    -6.7492    -1.9081 O
488 C488    -1.2857    -5.5192    -2.6257 C
489 H489    -0.6020    -5.5991    -3.4758 H
490 H490    -0.9527    -4.6891    -1.9933 H
491 H491    -2.2928    -5.3265    -3.0112 H
492 C492     1.8004    -7.6938    -6.7413 C
493 H493     2.1696    -8.2915    -7.5694 H
494 H494     1.4416    -6.6990    -6.9781 H
495 H495     2.1809    -9.2023    -5.3489 H
496 C496     1.8023    -8.1919    -5.4997 C
497 C497     1.3484    -7.5301    -4.2978 C
498 C498     0.8413    -6.2966    -4.1986 C
499 H499     1.4384    -8.1184    -3.3857 H
500 H500     0.7111    -5.6341    -5.0430 H
501 O501     0.4464    -5.7857    -2.9892 O
502 C502    -0.0648    -4.4602    -3.0958 C
503 H503    -0.3560    -4.1267    -2.0956 H
504 H504    -0.9516    -4.4361    -3.7383 H
505 H505     0.7023    -3.7772    -3.4765 H
506 C506   -11.1285     1.7151     1.9456 C
507 H507   -12.1258     2.0966     1.7475 H
508 H508   -10.6855     1.9766     2.8995 H
509 H509   -11.0219     0.7449     0.1000 H
510 C510   -10.5042     0.9607     1.0341 C
511 C511    -9.1854     0.3801     1.1433 C
512 C512    -8.3401     0.4863     2.1742 C
513 H513    -8.8657    -0.2032     0.2808 H
514 H514    -8.5624     1.0416     3.0747 H
515 O515    -7.1099    -0.1182     2.1496 O
516 C516    -6.3622     0.1143     3.3398 C
517 H517    -5.4003    -0.3974     3.2424 H
518 H518    -6.8828    -0.2952     4.2122 H
519 H519    -6.1706     1.1841     3.4757 H
520 C520     7.5747     1.4648    -0.5007 C
521 H521     8.5379     1.8407    -0.1688 H
522 H522     7.5265     1.0638    -1.5064 H
523 H523     6.6529     1.9291     1.3141 H
524 C524     6.5175     1.5094     0.3178 C
525 C525     5.1766     1.0535     0.0303 C
526 C526     4.7387     0.5017    -1.1065 C
527 H527     4.4618     1.1833     0.8417 H
528 H528     5.3677     0.3302    -1.9688 H
529 O529     3.4325     0.1106    -1.2494 O
530 C530     3.1671    -0.4527    -2.5308 C
531 H531     2.1115    -0.7374    -2.5650 H
532 H532     3.7714    -1.3519    -2.6928 H
533 H533     3.3517     0.2803    -3.3235 H
534 C534    -3.8389     1.3973     6.9277 C
535 H535    -4.3173     2.0755     7.6280 H
536 H536    -2.7925     1.5773     6.7100 H
537 H537    -5.5853     0.2870     6.6513 H
538 C538    -4.5364     0.3971     6.3775 C
539 C539    -4.0507    -0.5848     5.4349 C
540 C540    -2.8142    -0.6799     4.9346 C
541 H541    -4.7890    -1.3169     5.1105 H
542 H542    -2.0112    -0.0036     5.1926 H
543 O543    -2.4829    -1.6661     4.0416 O
544 C544    -1.1211    -1.5956     3.6291 C
545 H545    -0.9373    -2.4101     2.9225 H
546 H546    -0.4487    -1.7237     4.4842 H
547 H547    -0.9175    -0.6468     3.1209 H
548 C548     5.6261     0.7807    -1.5073 C
549 H549     6.5426     0.2147    -1.3694 H
550 H550     5.2335     0.8375    -2.5158 H
551 H551     5.4967     1.2610     0.5205 H
552 C552     5.0350     1.3679    -0.4606 C
553 C553     3.8203     2.1508    -0.4758 C
554 C554     3.0581     2.4365    -1.5368 C
555 H555     3.5110     2.5404     0.4931 H
556 H556     3.2782     2.0979    -2.5396 H
557 O557     1.9229     3.1952    -1.4127 O
558 C558     1.2533     3.3854    -2.6557 C
559 H559     0.3645     3.9962    -2.4731 H
560 H560     0.9312     2.4259    -3.0745 H
561 H561     1.8958     3.9167    -3.3661 H
562 C562    -0.8388    -6.3663    -7.5307 C
563 H563    -0.9488    -6.5323    -8.5982 H
564 H564    -0.8175    -5.3358    -7.1958 H
565 H565    -0.7676    -8.4113    -7.1160 H
566 C566    -0.7370    -7.4065    -6.6957 C
567 C567    -0.5866    -7.3558    -5.2593 C
568 C568    -0.5209    -6.2614    -4.4934 C
569 H569    -0.5218    -8.3256    -4.7681 H
570 H570    -0.5755    -5.2546    -4.8834 H
571 O571    -0.3766    -6.3537    -3.1331 O
572 C572    -0.3273    -5.0782    -2.5004 C
573 H573    -0.2120    -5.2368    -1.4243 H
574 H574    -1.2573    -4.5245    -2.6689 H
575 H575     0.5321    -4.5003    -2.8570 H
576 C576     2.2176    -1.4885    -4.1624 C
577 H577     2.1247    -0.8331    -5.0232 H
578 H578     1.3573    -1.5601    -3.5072 H
579 H579     4.1715    -2.0321    -4.6584 H
580 C580     3.3541    -2.1615    -3.9497 C
581 C581     3.6362    -3.0671    -2.8594 C
582 C582     2.8163    -3.4038    -1.8579 C
583 H583     4.6301    -3.5120    -2.8751 H
584 H584     1.8120    -3.0181    -1.7521 H
585 O585     3.2110    -4.2806    -0.8806 O
586 C586     2.1961    -4.5078     0.0930 C
587 H587     2.5861    -5.2132     0.8324 H
588 H588     1.3066    -4.9501    -0.3686 H
589 H589     1.9368    -3.5769     0.6088 H
590 C590     0.3876    -6.6441     7.2915 C
591 H591     0.8544    -7.3181     8.0035 H
592 H592     0.7285    -6.7050     6.2645 H
593 H593    -0.8446    -5.7949     8.7474 H
594 C594    -0.5605    -5.7911     7.6955 C
595 C595    -1.2747    -4.8360     6.8792 C
596 C596    -1.1238    -4.6240     5.5674 C
597 H597    -2.0107    -4.2346     7.4109 H
598 H598    -0.4215    -5.1674     4.9509 H
599 O599    -1.8700    -3.6805     4.9097 O
600 C600    -1.5604    -3.6087     3.5210 C
601 H601    -2.1933    -2.8385     3.0709 H
602 H602    -1.7735    -4.5620     3.0254 H
603 H603    -0.5132    -3.3248     3.3703 H
604 C604     1.9978    -3.7357    -0.7982 C
605 H605     1.2981    -3.8350     0.0263 H
606 H606     1.5890    -3.8160    -1.7988 H
607 H607     3.6242    -3.4570     0.4809 H
608 C608     3.2964    -3.5249    -0.5560 C
609 C609     4.3488    -3.3717    -1.5345 C
610 C610     4.2246    -3.4115    -2.8655 C
611 H611     5.3426    -3.2069    -1.1206 H
612 H612     3.2836    -3.5693    -3.3736 H
613 O613     5.3113    -3.2504    -3.6857 O
614 C614     4.9702    -3.3256    -5.0668 C
615 H615     5.8849    -3.1885    -5.6509 H
616 H616     4.2668    -2.5307    -5.3374 H
617 H617     4.5503    -4.3075    -5.3107 H
618 C618    -7.4591    -4.7142     1.3610 C
619 H619    -8.3178    -4.1048     1.6265 H
620 H620    -6.7336    -4.9041     2.1435 H
621 H621    -8.1087    -4.9536    -0.6087 H
622 C622    -7.3327    -5.1924     0.1180 C
623 C623    -6.2577    -6.0126    -0.3919 C
624 C624    -5.1871    -6.4486     0.2805 C
625 H625    -6.3503    -6.2944    -1.4399 H
626 H626    -5.0033    -6.2246     1.3220 H
627 O627    -4.2345    -7.2255    -0.3266 O
628 C628    -3.1770    -7.5852     0.5576 C
629 H629    -2.4632    -8.2000     0.0016 H
630 H630    -3.5571    -8.1751     1.3986 H
631 H631    -2.6538    -6.6941     0.9207 H
632 C632    -6.1642    -2.4637     5.7309 C
633 H633    -7.1712    -2.5779     6.1209 H
634 H634    -5.6563    -3.3678     5.4158 H
635 H635    -6.1867    -0.3927     5.9948 H
636 C636    -5.6060    -1.2502     5.6562 C
637 C637    -4.2848    -0.9306     5.1654 C
638 C638    -3.3711    -1.7854     4.6935 C
639 H639    -4.0267     0.1272     5.1920 H
640 H640    -3.5296    -2.8527     4.6258 H
641 O641    -2.1475    -1.3479     4.2564 O
642 C642    -1.3197    -2.4110     3.7934 C
643 H643    -0.3685    -1.9827     3.4644 H
644 H644    -1.7813    -2.9198     2.9403 H
645 H645    -1.1155    -3.1240     4.5995 H
646 C646    -7.6359     0.7079     4.4668 C
647 H647    -8.5613     1.2758     4.4887 H
648 H648    -7.4711     0.0101     5.2795 H
649 H649    -7.0059     1.6077     2.6912 H
650 C650    -6.7620     0.8852     3.4695 C
651 C651    -5.4948     0.2127     3.2954 C
652 C652    -4.9559    -0.7126     4.0965 C
653 H653    -4.9348     0.5071     2.4088 H
654 H654    -5.4309    -1.0721     4.9987 H
655 O655    -3.7378    -1.2749     3.8141 O
656 C656    -3.3403    -2.2366     4.7871 C
657 H657    -2.3657    -2.6360     4.4920 H
658 H658    -4.0542    -3.0664     4.8277 H
659 H659    -3.2373    -1.7718     5.7736 H
660 C660    -3.5204    -0.6395     8.5194 C
661 H661    -3.7920    -0.2710     9.5041 H
662 H662    -3.2529    -1.6872     8.4460 H
663 H663    -3.8079     1.2270     7.6290 H
664 C664    -3.5259     0.1870     7.4675 C
665 C665    -3.1927    -0.1444     6.1008 C
666 C666    -2.8162    -1.3377     5.6291 C
667 H667    -3.2626     0.6828     5.3958 H
668 H668    -2.7165    -2.2200     6.2458 H
669 O669    -2.5267    -1.5178     4.3012 O
670 C670    -2.1465    -2.8575     4.0008 C
671 H671    -1.9334    -2.9185     2.9297 H
672 H672    -2.9609    -3.5534     4.2298 H
673 H673    -1.2397    -3.1363     4.5484 H
674 C674     2.6315    -2.3637    -5.1679 C
675 H675     2.9775    -1.9008    -6.0873 H
676 H676     2.0803    -3.2918    -5.2651 H
677 H677     3.4514    -0.8556    -3.9793 H
678 C678     2.8902    -1.7895    -3.9876 C
679 C679     2.5028    -2.2743    -2.6825 C
680 C680     1.8134    -3.3867    -2.4072 C
681 H681     2.8169    -1.6502    -1.8470 H
682 H682     1.4569    -4.0717    -3.1638 H
683 O683     1.5100    -3.7335    -1.1160 O
684 C684     0.7724    -4.9496    -1.0350 C
685 H685     0.5711    -5.1555     0.0203 H
686 H686     1.3525    -5.7841    -1.4437 H
687 H687    -0.1864    -4.8583    -1.5567 H
688 C688    -6.0853     3.3794    -0.2620 C
689 H689    -6.6004     3.8456    -1.0966 H
690 H690    -6.2748     2.3250    -0.0978 H
691 H691    -5.1284     5.1563     0.2729 H
692 C692    -5.2626     4.1008     0.5077 C
693 C693    -4.5076     3.6338     1.6480 C
694 C694    -4.4879     2.3941     2.1494 C
695 H695    -3.8952     4.3904     2.1365 H
696 H696    -5.0591     1.5737     1.7379 H
697 O697    -3.7225     2.0821     3.2433 O
698 C698    -3.8395     0.7133     3.6204 C
699 H699    -3.2033     0.5459     4.4943 H
700 H700    -3.4956     0.0570     2.8137 H
701 H701    -4.8722     0.4728     3.8954 H
702 C702    -5.7471     3.9941    -3.2681 C
703 H703    -5.8333     4.2802    -4.3121 H
704 H704    -6.0101     2.9730    -3.0177 H
705 H705    -5.0882     5.8910    -2.6964 H
706 C706    -5.3327     4.8841    -2.3593 C
707 C707    -5.1655     4.6634    -0.9409 C
708 C708    -5.3928     3.5298    -0.2687 C
709 H709    -4.8157     5.5277    -0.3781 H
710 H710    -5.7407     2.6183    -0.7342 H
711 O711    -5.1928     3.4545     1.0855 O
712 C712    -5.4907     2.1645     1.6116 C
713 H713    -5.3071     2.1862     2.6897 H
714 H714    -4.8399     1.4036     1.1671 H
715 H715    -6.5435     1.9111     1.4469 H
716 C716     1.5041    -5.6342     6.9816 C
717 H717     1.4492    -5.9944     8.0046 H
718 H718     0.6975    -4.9934     6.6449 H
719 H719     3.3017    -6.6321     6.6183 H
720 C720     2.5323    -5.9836     6.2004 C
721 C721     2.7516    -5.5920     4.8266 C
722 C722     1.9699    -4.8075     4.0770 C
723 H723     3.6579    -5.9906     4.3728 H
724 H724     1.0510    -4.3634     4.4335 H
725 O725     2.2957    -4.5124     2.7784 O
726 C726     1.3372    -3.6640     2.1530 C
727 H727     1.6670    -3.4767     1.1271 H
728 H728     1.2704    -2.7027     2.6739 H
729 H729     0.3553    -4.1481     2.1158 H
730 C730     3.4481     1.2076    -1.1415 C
731 H731     4.2308     0.5491    -0.7770 H
732 H732     2.8320     0.8335    -1.9509 H
733 H733     3.9427     2.7153     0.2153 H
734 C734     3.2789     2.4171    -0.5955 C
735 C735     2.2910     3.4056    -0.9635 C
736 C736     1.3601     3.2993    -1.9178 C
737 H737     2.3270     4.3296    -0.3880 H
738 H738     1.2419     2.4252    -2.5429 H
739 O739     0.4778     4.3187    -2.1665 O
740 C740    -0.4318     4.0105    -3.2187 C
741 H741    -1.0975     4.8677    -3.3547 H
742 H742    -1.0424     3.1381    -2.9617 H
743 H743     0.1044     3.8388    -4.1583 H
744 C744    -0.5429    -3.8053    -3.4509 C
745 H745    -1.0717    -3.4189    -4.3172 H
746 H746    -1.1383    -4.3125    -2.7007 H
747 H747     1.3039    -3.1231    -4.1459 H
748 C748     0.7812    -3.6459    -3.3455 C
749 C749     1.6270    -4.0977    -2.2644 C
750 C750     1.2476    -4.7596    -1.1660 C
751 H751     2.6844    -3.8627    -2.3774 H
752 H752     0.2238    -5.0396    -0.9605 H
753 O753     2.1578    -5.1321    -0.2108 O
754 C754     1.5554    -5.8254     0.8781 C
755 H755     2.3420    -6.0864     1.5920 H
756 H756     1.0814    -6.7514     0.5349 H
757 H757     0.8252    -5.1881     1.3886 H
758 C758     4.0546     4.1535     3.2477 C
759 H759     4.8152     4.1408     4.0226 H
760 H760     3.1634     4.7373     3.4468 H
761 H761     5.1658     2.9083     1.9933 H
762 C762     4.2399     3.4700     2.1128 C
763 C763     3.3314     3.3847     0.9921 C
764 C764     2.1353     3.9717     0.8769 C
765 H765     3.6792     2.7705     0.1626 H
766 H766     1.7014     4.5996     1.6424 H
767 O767     1.3687     3.8077    -0.2479 O
768 C768     0.1329     4.5128    -0.1751 C
769 H769    -0.4166     4.3324    -1.1036 H
770 H770     0.3051     5.5904    -0.0811 H
771 H771    -0.4743     4.1479     0.6604 H
772 C772   -11.1771    -2.1791     0.7202 C
773 H773   -12.0393    -2.8390     0.7425 H
774 H774   -11.0883    -1.4631     1.5289 H
775 H775   -10.4504    -3.0202    -1.0472 H
776 C776   -10.2854    -2.2717    -0.2728 C
777 C777    -9.0932    -1.4736    -0.4468 C
778 C778    -8.6558    -0.4929     0.3503 C
779 H779    -8.5022    -1.7143    -1.3293 H
780 H780    -9.1690    -0.1786     1.2483 H
781 O781    -7.5007     0.1899     0.0685 O
782 C782    -7.2083     1.1933     1.0366 C
783 H783    -6.2787     1.6890     0.7424 H
784 H784    -7.0623     0.7477     2.0265 H
785 H785    -8.0039     1.9456     1.0692 H
786 C786   -10.2930    -1.1975    -2.7262 C
787 H787   -10.8301    -0.2591    -2.8271 H
788 H788   -10.3505    -1.8860    -3.5613 H
789 H789    -9.5973    -0.7125    -0.8184 H
790 C790    -9.6027    -1.4603    -1.6108 C
791 C791    -8.8401    -2.6535    -1.3222 C
792 C792    -8.6800    -3.7195    -2.1137 C
793 H793    -8.3514    -2.6639    -0.3490 H
794 H794    -9.1227    -3.8065    -3.0961 H
795 O795    -7.9254    -4.7929    -1.7161 O
796 C796    -7.8789    -5.8231    -2.6990 C
797 H797    -7.2622    -6.6378    -2.3086 H
798 H798    -7.4203    -5.4573    -3.6241 H
799 H799    -8.8818    -6.2158    -2.8983 H
800 C800    -6.5112     4.3917    -4.1192 C
801 H801    -6.8019     5.4154    -3.9029 H
802 H802    -6.4756     4.1038    -5.1635 H
803 H803    -6.2785     3.9222    -2.0982 H
804 C804    -6.2174     3.5511    -3.1208 C
805 C805    -5.8165     2.1678    -3.2396 C
806 C806    -5.6633     1.4665    -4.3680 C
807 H807    -5.6234     1.6611    -2.2951 H
808 H808    -5.8301     1.8768    -5.3542 H
809 O809    -5.2757     0.1517    -4.3404 O
810 C810    -5.1703    -0.4150    -5.6433 C
811 H811    -4.8588    -1.4580    -5.5361 H
812 H812    -4.4138     0.1109    -6.2359 H
813 H813    -6.1386    -0.3959    -6.1550 H
814 C814    -1.8197    -6.0379     1.1280 C
815 H815    -1.6197    -5.6047     2.1035 H
816 H816    -1.8455    -5.3560     0.2861 H
817 H817    -1.9770    -7.9696     1.9045 H
818 C818    -2.0203    -7.3550     1.0059 C
819 C819    -2.2959    -8.0823    -0.2121 C
820 C820    -2.4025    -7.5780    -1.4461 C
821 H821    -2.4273    -9.1563    -0.0879 H
822 H822    -2.2892    -6.5274    -1.6744 H
823 O823    -2.6688    -8.3840    -2.5226 O
824 C824    -2.7429    -7.6569    -3.7455 C
825 H825    -2.9568    -8.3661    -4.5503 H
826 H826    -1.7885    -7.1659    -3.9643 H
827 H827    -3.5532    -6.9206    -3.7115 H
828 C828     1.4489    -3.6614    -2.3067 C
829 H829     1.1147    -4.0915    -1.3673 H
830 H830     2.4847    -3.8270    -2.5793 H
831 H831    -0.4285    -2.8464    -2.7196 H
832 C832     0.5970    -2.9656    -3.0681 C
833 C833     0.8824    -2.3338    -4.3362 C
834 C834     2.0500    -2.3248    -4.9881 C
835 H835     0.0406    -1.8146    -4.7922 H
836 H836     2.9436    -2.8098    -4.6206 H
837 O837     2.1867    -1.6835    -6.1921 O
838 C838     3.5048    -1.7901    -6.7222 C
839 H839     3.5316    -1.2565    -7.6766 H
840 H840     3.7661    -2.8378    -6.9064 H
841 H841     4.2335    -1.3267    -6.0484 H
842 C842    -9.2886    -2.4225    -0.1926 C
843 H843    -9.8364    -3.3572    -0.2667 H
844 H844    -8.5964    -2.1965    -0.9952 H
845 H845   -10.1979    -1.9145     1.6169 H
846 C846    -9.4826    -1.6110     0.8531 C
847 C847    -8.8373    -0.3414     1.0986 C
848 C848    -7.9256     0.2623     0.3286 C
849 H849    -9.1418     0.1606     2.0159 H
850 H850    -7.5580    -0.1525    -0.5995 H
851 O851    -7.3893     1.4742     0.6796 O
852 C852    -6.4386     1.9474    -0.2700 C
853 H853    -6.0598     2.9120     0.0798 H
854 H854    -6.9077     2.0964    -1.2486 H
855 H855    -5.5936     1.2552    -0.3522 H
856 C856    -0.8564    -2.1240    -8.9406 C
857 H857    -0.7901    -1.7958    -9.9736 H
858 H858     0.0377    -2.0219    -8.3367 H
859 H859    -2.8549    -2.6935    -9.1424 H
860 C860    -2.0025    -2.6259    -8.4671 C
861 C861    -2.2532    -3.1037    -7.1265 C
862 C862    -1.3889    -3.1349    -6.1065 C
863 H863    -3.2622    -3.4740    -6.9503 H
864 H864    -0.3664    -2.7913    -6.1787 H
865 O865    -1.7575    -3.6168    -4.8771 O
866 C866    -0.6961    -3.5647    -3.9283 C
867 H867    -1.0678    -3.9638    -2.9801 H
868 H868    -0.3725    -2.5313    -3.7633 H
869 H869     0.1476    -4.1824    -4.2545 H
870 C870    -8.0570    -1.3736     1.4381 C
871 H871    -7.6710    -0.4776     1.9150 H
872 H872    -7.9189    -2.3083     1.9689 H
873 H873    -8.7660    -0.3125    -0.2143 H
874 C874    -8.6691    -1.2928     0.2513 C
875 C875    -9.2343    -2.3830    -0.5105 C
876 C876    -9.2529    -3.6773    -0.1744 C
877 H877    -9.6892    -2.0964    -1.4577 H
878 H878    -8.8290    -4.0631     0.7422 H
879 O879    -9.8254    -4.6160    -0.9934 O
880 C880    -9.7423    -5.9334    -0.4575 C
881 H881   -10.2178    -6.6189    -1.1649 H
882 H882   -10.2759    -5.9991     0.4969 H
883 H883    -8.6973    -6.2374    -0.3334 H
884 C884    -0.3566     3.1955    -4.8481 C
885 H885    -1.1306     3.6584    -5.4530 H
886 H886     0.1259     2.3168    -5.2601 H
887 H887    -0.5725     4.5970    -3.3157 H
888 C888    -0.0377     3.7105    -3.6553 C
889 C889     0.9615     3.2171    -2.7352 C
890 C890     1.7556     2.1539    -2.9010 C
891 H891     1.0614     3.7884    -1.8134 H
892 H892     1.7343     1.5228    -3.7785 H
893 O893     2.6675     1.7918    -1.9434 O
894 C894     3.4145     0.6351    -2.3088 C
895 H895     4.1149     0.4127    -1.4986 H
896 H896     3.9913     0.8172    -3.2220 H
897 H897     2.7540    -0.2290    -2.4394 H
898 C898    -3.3290    -7.5846     5.5375 C
899 H899    -3.1785    -7.8871     6.5696 H
900 H900    -3.2574    -8.3612     4.7850 H
901 H901    -3.6435    -5.5881     6.0611 H
902 C902    -3.5887    -6.3058     5.2430 C
903 C903    -3.8121    -5.7449     3.9300 C
904 C904    -3.8017    -6.3965     2.7622 C
905 H905    -4.0083    -4.6738     3.9136 H
906 H906    -3.6171    -7.4579     2.6715 H
907 O907    -4.0303    -5.7404     1.5803 O
908 C908    -3.9766    -6.6096     0.4528 C
909 H909    -4.1678    -6.0143    -0.4448 H
910 H910    -4.7475    -7.3846     0.5223 H
911 H911    -2.9844    -7.0641     0.3592 H
912 C912    -7.9436    -6.4205     4.0099 C
913 H913    -7.8669    -7.2377     4.7209 H
914 H914    -8.5507    -6.5940     3.1291 H
915 H915    -6.7164    -5.1759     5.1519 H
916 C916    -7.3064    -5.2670     4.2404 C
917 C917    -7.3067    -4.0915     3.3998 C
918 C918    -7.9429    -3.9337     2.2341 C
919 H919    -6.7185    -3.2556     3.7760 H
920 H920    -8.5510    -4.7014     1.7762 H
921 O921    -7.8596    -2.7589     1.5324 O
922 C922    -8.6065    -2.7918     0.3197 C
923 H923    -8.4896    -1.8247    -0.1780 H
924 H924    -9.6715    -2.9475     0.5231 H
925 H925    -8.2268    -3.5712    -0.3497 H
926 C926    -3.5456     3.8113    -0.9135 C
927 H927    -4.5065     3.8131    -0.4077 H
928 H928    -3.5629     3.7616    -1.9960 H
929 H929    -2.4848     3.9164     0.8817 H
930 C930    -2.4126     3.8686    -0.2044 C
931 C931    -1.0634     3.8748    -0.7221 C
932 C932    -0.6917     3.8246    -2.0057 C
933 H933    -0.2802     3.9265     0.0331 H
934 H934    -1.3907     3.7717    -2.8288 H
935 O935     0.6317     3.8375    -2.3634 O
936 C936     0.8177     3.7774    -3.7746 C
937 H937     1.8926     3.7919    -3.9768 H
938 H938     0.3638     4.6460    -4.2639 H
939 H939     0.4035     2.8488    -4.1821 H
940 C940     0.4042    -5.4725     1.4780 C
941 H941     1.0492    -4.9249     2.1588 H
942 H942    -0.4368    -4.9318     1.0599 H
943 H943     1.5306    -7.2216     1.6547 H
944 C944     0.6635    -6.7530     1.1903 C
945 C945    -0.0917    -7.6156     0.3104 C
946 C946    -1.1910    -7.2982    -0.3819 C
947 H947     0.2944    -8.6295     0.2160 H
948 H948    -1.6522    -6.3208    -0.3564 H
949 O949    -1.8146    -8.2173    -1.1858 O
950 C950    -2.9651    -7.6846    -1.8354 C
951 H951    -3.4026    -8.4740    -2.4534 H
952 H952    -2.6910    -6.8488    -2.4881 H
953 H953    -3.7140    -7.3675    -1.1016 H
954 C954    -1.3326     6.7864     2.1153 C
955 H955    -2.0307     7.4578     2.6064 H
956 H956    -1.0340     7.0444     1.1059 H
957 H957    -1.2329     5.5154     3.7687 H
958 C958    -0.8816     5.7009     2.7541 C
959 C959     0.0437     4.7149     2.2442 C
960 C960     0.6239     4.7003     1.0394 C
961 H961     0.2799     3.9049     2.9329 H
962 H962     0.4557     5.4568     0.2856 H
963 O963     1.4888     3.6994     0.6793 O
964 C964     1.9983     3.8652    -0.6408 C
965 H965     2.6756     3.0323    -0.8509 H
966 H966     2.5649     4.7989    -0.7244 H
967 H967     1.1869     3.8428    -1.3763 H
968 C968     2.9729     2.7494    -1.2911 C
969 H969     3.8978     2.2652    -1.5902 H
970 H970     2.2579     2.9653    -2.0764 H
971 H971     3.5297     2.7998     0.7205 H
972 C972     2.7576     3.0518    -0.0059 C
973 C973     1.5881     3.6920     0.5517 C
974 C974     0.5011     4.1031    -0.1100 C
975 H975     1.6169     3.8465     1.6294 H
976 H976     0.3754     3.9959    -1.1784 H
977 O977    -0.5455     4.7003     0.5440 O
978 C978    -1.6048     5.0641    -0.3363 C
979 H979    -2.3956     5.5310     0.2580 H
980 H980    -2.0218     4.1793    -0.8294 H
981 H981    -1.2597     5.7900    -1.0806 H
982 C982    -0.6659    -5.3066    -3.1077 C
983 H983     0.0852    -4.5226    -3.1277 H
984 H984    -0.9015    -5.7823    -4.0525 H
985 H985    -0.9578    -5.1159    -1.0492 H
986 C986    -1.2535    -5.6451    -1.9545 C
987 C987    -2.2642    -6.6595    -1.7597 C
988 C988    -2.8030    -7.4510    -2.6933 C
989 H989    -2.6098    -6.7746    -0.7333 H
990 H990    -2.5286    -7.4152    -3.7383 H
991 O991    -3.7601    -8.3787    -2.3723 O
992 C992    -4.2053    -9.1198    -3.5047 C
993 H993    -4.9625    -9.8336    -3.1676 H
994 H994    -3.3778    -9.6814    -3.9516 H
995 H995    -4.6633    -8.4574    -4.2472 H
996 C996     2.3495    -6.9538     3.7848 C
997 H997     2.9825    -7.1833     4.6368 H
998 H998     2.8425    -6.5745     2.8974 H
999 H999     0.6122    -7.5272     4.7909 H
1000 C1000     1.0271    -7.1418     3.8601 C
1001 C1001     0.0532    -6.8873     2.8231 C
1002 C1002     0.2885    -6.4164     1.5937 C
1003 H1003    -0.9777    -7.1103     3.0942 H
1004 H1004     1.2744    -6.1650     1.2284 H
1005 O1005    -0.7330    -6.2195     0.7007 O
1006 C1006    -0.2760    -5.7138    -0.5504 C
1007 H1007    -1.1446    -5.5848    -1.2027 H
1008 H1008     0.4109    -6.4208    -1.0279 H
1009 H1009     0.2062    -4.7386    -0.4228 H
1010 C1010    -3.1188    -6.2652    -2.8892 C
1011 H1011    -2.7585    -5.7066    -3.7479 H
1012 H1012    -3.8883    -7.0054    -3.0751 H
1013 H1013    -1.8434    -5.2641    -1.5737 H
1014 C1014    -2.6155    -6.0264    -1.6728 C
1015 C1015    -2.9845    -6.6783    -0.4370 C
1016 C1016    -3.8973    -7.6421    -0.2747 C
1017 H1017    -2.4483    -6.3312     0.4452 H
1018 H1018    -4.4819    -8.0544    -1.0852 H
1019 O1019    -4.1525    -8.1784     0.9610 O
1020 C1020    -5.1558    -9.1891     0.9221 C
1021 H1021    -5.3003    -9.5639     1.9395 H
1022 H1022    -4.8408   -10.0255     0.2889 H
1023 H1023    -6.1077    -8.7785     0.5683 H
1024 C1024    -4.3919     3.7836    -5.7718 C
1025 H1025    -3.8732     4.6788    -6.1016 H
1026 H1026    -4.9386     3.2294    -6.5258 H
1027 H1027    -3.7655     4.0251    -3.7948 H
1028 C1028    -4.3383     3.4102    -4.4882 C
1029 C1029    -4.9685     2.2538    -3.8931 C
1030 C1030    -5.7233     1.3391    -4.5111 C
1031 H1031    -4.7965     2.1342    -2.8243 H
1032 H1032    -5.9528     1.3679    -5.5671 H
1033 O1033    -6.2649     0.2832    -3.8245 O
1034 C1034    -7.0343    -0.5762    -4.6606 C
1035 H1035    -7.4292    -1.3876    -4.0424 H
1036 H1036    -6.4100    -1.0150    -5.4464 H
1037 H1037    -7.8796    -0.0360    -5.1004 H
1038 C1038    -5.7061     2.1477    -0.0974 C
1039 H1039    -6.4705     1.8256    -0.7983 H
1040 H1040    -5.2966     1.3908     0.5614 H
1041 H1041    -5.7752     4.1226    -0.7713 H
1042 C1042    -5.3113     3.4257    -0.0740 C
1043 C1043    -4.3127     4.0105     0.7917 C
1044 C1044    -3.5951     3.3864     1.7320 C
1045 H1045    -4.1425     5.0761     0.6449 H
1046 H1046    -3.6892     2.3328     1.9547 H
1047 O1047    -2.6739     4.0633     2.4888 O
1048 C1048    -2.0166     3.2221     3.4322 C
1049 H1049    -1.3026     3.8326     3.9926 H
1050 H1050    -1.4632     2.4255     2.9234 H
1051 H1051    -2.7356     2.7964     4.1405 H
1052 C1052    -6.5545     4.1499    -5.7174 C
1053 H1053    -6.8222     5.1913    -5.8687 H
1054 H1054    -6.4036     3.5496    -6.6071 H
1055 H1055    -6.5947     4.3351    -3.6382 H
1056 C1056    -6.4250     3.6624    -4.4784 C
1057 C1057    -6.0765     2.3093    -4.1094 C
1058 C1058    -5.8177     1.2894    -4.9348 C
1059 H1059    -6.0248     2.1226    -3.0376 H
1060 H1060    -5.8426     1.3714    -6.0125 H
1061 O1061    -5.4973     0.0473    -4.4510 O
1062 C1062    -5.2582    -0.8991    -5.4887 C
1063 H1063    -5.0105    -1.8578    -5.0240 H
1064 H1064    -4.4110    -0.5889    -6.1100 H
1065 H1065    -6.1540    -1.0362    -6.1039 H
1066 C1066    -4.0844     2.8263     1.2399 C
1067 H1067    -3.9820     2.8055     2.3208 H
1068 H1068    -4.8865     2.2353     0.8133 H
1069 H1069    -2.4642     4.1226     1.0086 H
1070 C1070    -3.2438     3.5571     0.4990 C
1071 C1071    -3.2457     3.6905    -0.9400 C
1072 C1072    -4.0866     3.1099    -1.8027 C
1073 H1073    -2.4695     4.3390    -1.3438 H
1074 H1074    -4.8892     2.4504    -1.5032 H
1075 O1075    -3.9779     3.3219    -3.1528 O
1076 C1076    -4.9649     2.6154    -3.8987 C
1077 H1077    -4.8117     2.8354    -4.9592 H
1078 H1078    -5.9719     2.9450    -3.6210 H
1079 H1079    -4.8623     1.5346    -3.7532 H
1080 C1080     0.0969    -2.6762     4.2579 C
1081 H1081     0.9652    -2.0834     4.5298 H
1082 H1082     0.2473    -3.7445     4.1541 H
1083 H1083    -1.1519    -1.0043     4.1921 H
1084 C1084    -1.0878    -2.0848     4.0673 C
1085 C1085    -2.3307    -2.7268     3.7047 C
1086 C1086    -2.5323    -4.0315     3.4912 C
1087 H1087    -3.1823    -2.0561     3.5994 H
1088 H1088    -1.7538    -4.7775     3.5704 H
1089 O1089    -3.7699    -4.5129     3.1505 O
1090 C1090    -3.7760    -5.9257     2.9671 C
1091 H1091    -4.7920    -6.2294     2.6991 H
1092 H1092    -3.4964    -6.4392     3.8934 H
1093 H1093    -3.1042    -6.2147     2.1516 H
1094 C1094    -4.7880    -6.5812     0.9009 C
1095 H1095    -4.7853    -7.1304    -0.0359 H
1096 H1096    -4.0089    -6.8259     1.6134 H
1097 H1097    -6.4706    -5.4686     0.3623 H
1098 C1098    -5.7229    -5.6528     1.1330 C
1099 C1099    -5.8641    -4.8401     2.3197 C
1100 C1100    -5.0886    -4.8618     3.4090 C
1101 H1101    -6.6994    -4.1414     2.3031 H
1102 H1102    -4.2367    -5.5174     3.5235 H
1103 O1103    -5.3343    -4.0324     4.4727 O
1104 C1104    -4.3976    -4.2086     5.5316 C
1105 H1105    -4.6601    -3.5160     6.3365 H
1106 H1106    -3.3817    -3.9754     5.1947 H
1107 H1107    -4.4449    -5.2291     5.9267 H
1108 C1108     1.7236    -5.8971    -0.6608 C
1109 H1109     2.6593    -5.7632    -0.1261 H
1110 H1110     1.0178    -5.0755    -0.6246 H
1111 H1111     2.2490    -7.8113    -1.3083 H
1112 C1112     1.4848    -7.0347    -1.3230 C
1113 C1113     0.2986    -7.3673    -2.0785 C
1114 C1114    -0.7836    -6.6025    -2.2589 C
1115 H1115     0.3089    -8.3525    -2.5427 H
1116 H1116    -0.8915    -5.6113    -1.8410 H
1117 O1117    -1.8477    -7.0413    -3.0036 O
1118 C1118    -2.8982    -6.0817    -3.0752 C
1119 H1119    -3.7041    -6.5043    -3.6822 H
1120 H1120    -2.5515    -5.1609    -3.5567 H
1121 H1121    -3.2959    -5.8655    -2.0777 H
1122 C1122    -1.9315   -10.5838    -1.9472 C
1123 H1123    -2.0512   -11.5318    -2.4631 H
1124 H1124    -2.7175   -10.2999    -1.2571 H
1125 H1125    -0.1093   -10.1862    -2.8857 H
1126 C1126    -0.8529    -9.8260    -2.1754 C
1127 C1127    -0.5464    -8.5479    -1.5744 C
1128 C1128    -1.2814    -7.8813    -0.6778 C
1129 H1129     0.3894    -8.0971    -1.9019 H
1130 H1130    -2.2236    -8.2424    -0.2899 H
1131 O1131    -0.8730    -6.6690    -0.1845 O
1132 C1132    -1.7928    -6.1235     0.7568 C
1133 H1133    -1.3977    -5.1633     1.1009 H
1134 H1134    -1.8979    -6.7832     1.6249 H
1135 H1135    -2.7679    -5.9469     0.2900 H
1136 C1136    -4.1384    -4.2911     4.0116 C
1137 H1137    -3.1846    -4.7159     4.3101 H
1138 H1138    -4.5646    -3.5390     4.6652 H
1139 H1139    -4.2350    -5.4605     2.2847 H
1140 C1140    -4.7325    -4.6991     2.8846 C
1141 C1141    -5.9935    -4.2367     2.3511 C
1142 C1142    -6.8045    -3.3151     2.8817 C
1143 H1143    -6.2966    -4.7031     1.4147 H
1144 H1144    -6.5946    -2.7951     3.8059 H
1145 O1145    -7.9804    -2.9661     2.2693 O
1146 C1146    -8.6985    -1.9698     2.9913 C
1147 H1147    -9.6177    -1.7478     2.4415 H
1148 H1148    -8.1126    -1.0475     3.0685 H
1149 H1149    -8.9728    -2.3335     3.9875 H
1150 C1150    -7.7172    -1.2287     2.7363 C
1151 H1151    -6.6770    -1.2538     3.0470 H
1152 H1152    -8.1250    -0.2603     2.4706 H
1153 H1153    -7.9458    -3.2898     2.9784 H
1154 C1154    -8.4336    -2.3577     2.6946 C
1155 C1155    -9.8189    -2.4935     2.3063 C
1156 C1156   -10.6464    -1.5182     1.9157 C
1157 H1157   -10.2106    -3.5091     2.3433 H
1158 H1158   -10.3552    -0.4794     1.8456 H
1159 O1159   -11.9467    -1.7845     1.5721 O
1160 C1160   -12.6611    -0.6142     1.1856 C
1161 H1161   -13.6827    -0.9088     0.9285 H
1162 H1162   -12.2038    -0.1530     0.3035 H
1163 H1163   -12.7077     0.1035     2.0118 H
1164 C1164    -6.8186    -3.3242     2.6107 C
1165 H1165    -6.8917    -2.2825     2.9085 H
1166 H1166    -7.5438    -3.6780     1.8871 H
1167 H1167    -5.1772    -3.6709     3.8536 H
1168 C1168    -5.8667    -4.1069     3.1314 C
1169 C1169    -5.6363    -5.5039     2.8418 C
1170 C1170    -6.3295    -6.2781     2.0001 C
1171 H1171    -4.8027    -5.9544     3.3787 H
1172 H1172    -7.1724    -5.9269     1.4214 H
1173 O1173    -6.0040    -7.5972     1.8163 O
1174 C1174    -6.8607    -8.2470     0.8817 C
1175 H1175    -6.5378    -9.2882     0.7914 H
1176 H1176    -6.7871    -7.7771    -0.1050 H
1177 H1177    -7.8980    -8.2378     1.2335 H
1178 C1178    -0.4238    -2.3323    -5.6928 C
1179 H1179     0.5658    -2.7552    -5.8379 H
1180 H1180    -0.5242    -1.2627    -5.8355 H
1181 H1181    -1.2613    -4.1881    -5.2305 H
1182 C1182    -1.4491    -3.1220    -5.3541 C
1183 C1183    -2.8178    -2.7183    -5.1256 C
1184 C1184    -3.3184    -1.4810    -5.2091 C
1185 H1185    -3.4979    -3.5256    -4.8576 H
1186 H1186    -2.7276    -0.6133    -5.4675 H
1187 O1187    -4.6447    -1.2331    -4.9658 O
1188 C1188    -4.9784     0.1448    -5.1062 C
1189 H1189    -6.0460     0.2590    -4.8972 H
1190 H1190    -4.7894     0.4883    -6.1290 H
1191 H1191    -4.4201     0.7552    -4.3882 H
1192 C1192    -6.0657     0.0074    -4.6457 C
1193 H1193    -5.0385    -0.3427    -4.6851 H
1194 H1194    -6.8140    -0.6185    -5.1177 H
1195 H1195    -5.5462     1.7296    -3.5859 H
1196 C1196    -6.3597     1.1611    -4.0355 C
1197 C1197    -7.6667     1.7619    -3.8971 C
1198 C1198    -8.8283     1.2797    -4.3516 C
1199 H1199    -7.6838     2.7097    -3.3609 H
1200 H1200    -8.9179     0.3492    -4.8945 H
1201 O1201   -10.0049     1.9543    -4.1510 O
1202 C1202   -11.1263     1.2766    -4.7104 C
1203 H1203   -12.0199     1.8746    -4.5093 H
1204 H1204   -11.2582     0.2937    -4.2453 H
1205 H1205   -11.0174     1.1750    -5.7956 H
1206 C1206     4.9802    -0.5597    -4.2868 C
1207 H1207     5.6726    -1.3598    -4.5308 H
1208 H1208     5.2048     0.4211    -4.6894 H
1209 H1209     3.7584    -1.8223    -3.1589 H
1210 C1210     3.9100    -0.8066    -3.5229 C
1211 C1211     2.9004     0.1413    -3.1099 C
1212 C1212     2.8440     1.4428    -3.4124 C
1213 H1213     2.1092    -0.2709    -2.4852 H
1214 H1214     3.5791     1.9467    -4.0244 H
1215 O1215     1.8245     2.2357    -2.9527 O
1216 C1216     1.9457     3.5879    -3.3845 C
1217 H1217     1.1005     4.1515    -2.9788 H
1218 H1218     1.9091     3.6518    -4.4774 H
1219 H1219     2.8710     4.0355    -3.0058 H
1220 C1220    -2.7181     3.4037    -2.9212 C
1221 H1221    -3.6186     3.2611    -3.5112 H
1222 H1222    -2.8336     3.9008    -1.9652 H
1223 H1223    -1.5102     2.4838    -4.3543 H
1224 C1224    -1.5378     2.9743    -3.3818 C
1225 C1225    -0.2559     3.0864    -2.7240 C
1226 C1226    -0.0066     3.6396    -1.5323 C
1227 H1227     0.5840     2.6683    -3.2770 H
1228 H1228    -0.7698     4.0810    -0.9066 H
1229 O1229     1.2644     3.6809    -1.0199 O
1230 C1230     1.3193     4.3096     0.2573 C
1231 H1231     2.3596     4.3027     0.5952 H
1232 H1232     0.7167     3.7592     0.9878 H
1233 H1233     0.9855     5.3509     0.1927 H
1234 C1234    -2.1634    -2.4296     4.5621 C
1235 H1235    -3.0312    -2.6449     3.9459 H
1236 H1236    -2.2916    -2.5165     5.6348 H
1237 H1237    -0.9627    -2.0130     2.9056 H
1238 C1238    -1.0056    -2.0765     3.9925 C
1239 C1239     0.2329    -1.7596     4.6665 C
1240 C1240     0.4563    -1.7591     5.9851 C
1241 H1241     1.0605    -1.4954     4.0098 H
1242 H1242    -0.2977    -2.0063     6.7193 H
1243 O1243     1.6866    -1.4368     6.4972 O
1244 C1244     1.7191    -1.4951     7.9203 C
1245 H1245     2.7274    -1.2266     8.2486 H
1246 H1246     1.5010    -2.5089     8.2730 H
1247 H1247     1.0137    -0.7787     8.3549 H
1248 C1248    -1.6507     4.1743     0.5769 C
1249 H1249    -1.2858     3.8305    -0.3863 H
1250 H1250    -2.6996     4.4405     0.6358 H
1251 H1251     0.2222     3.9664     1.4759 H
1252 C1252    -0.8186     4.2538     1.6215 C
1253 C1253    -1.1447     4.6885     2.9606 C
1254 C1254    -2.3379     5.0930     3.4091 C
1255 H1255    -0.3134     4.6773     3.6641 H
1256 H1256    -3.2240     5.1402     2.7917 H
1257 O1257    -2.5126     5.4819     4.7121 O
1258 C1258    -3.8530     5.8762     4.9903 C
1259 H1259    -3.9096     6.1700     6.0424 H
1260 H1260    -4.5451     5.0427     4.8282 H
1261 H1261    -4.1403     6.7370     4.3768 H
1262 C1262    -1.0023     2.6415    -2.6059 C
1263 H1263    -1.8652     2.0098    -2.7948 H
1264 H1264    -0.0670     2.3413    -3.0637 H
1265 H1265    -2.1002     3.9614    -1.4177 H
1266 C1266    -1.1223     3.7316    -1.8398 C
1267 C1267    -0.0785     4.6696    -1.4944 C
1268 C1268     1.2030     4.6261    -1.8742 C
1269 H1269    -0.3922     5.4932    -0.8546 H
1270 H1270     1.6129     3.8516    -2.5073 H
1271 O1271     2.0961     5.5858    -1.4730 O
1272 C1272     3.4071     5.3606    -1.9830 C
1273 H1273     4.0555     6.1635    -1.6204 H
1274 H1274     3.4078     5.3860    -3.0781 H
1275 H1275     3.8061     4.4066    -1.6220 H
1276 C1276     0.2792    -4.5817    -5.3484 C
1277 H1277     0.4499    -5.6328    -5.5614 H
1278 H1278    -0.3361    -4.3510    -4.4866 H
1279 H1279     1.4241    -3.9597    -6.9798 H
1280 C1280     0.8175    -3.6410    -6.1326 C
1281 C1281     0.6870    -2.2092    -5.9864 C
1282 C1282     0.0046    -1.5539    -5.0411 C
1283 H1283     1.2092    -1.6195    -6.7385 H
1284 H1284    -0.5459    -2.0460    -4.2516 H
1285 O1285    -0.0384    -0.1838    -5.0167 O
1286 C1286    -0.8154     0.3200    -3.9340 C
1287 H1287    -0.8003     1.4125    -3.9842 H
1288 H1288    -0.3878     0.0137    -2.9731 H
1289 H1289    -1.8556    -0.0138    -4.0137 H
@<TRIPOS>BOND
1 1 2 1
2 1 3 1
3 1 4 1
4 2 5 1
5 2 6 1
6 6 7 1
7 6 8 1
8 8 9 1
9 9 10 1
10 9 11 1
11 9 12 1
12 10 13 1
13 10 14 1
14 10 15 1
15 16 17 1
16 16 18 1
17 16 20 1
18 19 20 1
19 20 21 1
20 21 22 1
21 21 23 1
22 22 24 1
23 22 25 1
24 25 26 1
25 26 27 1
26 26 28 1
27 26 29 1
28 30 31 1
29 30 32 1
30 30 34 1
31 33 34 1
32 34 35 1
33 35 36 1
34 35 37 1
35 36 38 1
36 36 39 1
37 39 40 1
38 40 41 1
39 40 42 1
40 40 43 1
41 44 45 1
42 44 46 1
43 44 48 1
44 47 48 1
45 48 49 1
46 49 50 1
47 49 51 1
48 50 52 1
49 50 53 1
50 53 54 1
51 54 55 1
52 54 56 1
53 54 57 1
54 58 59 1
55 58 60 1
56 58 62 1
57 61 62 1
58 62 63 1
59 63 64 1
60 63 65 1
61 64 66 1
62 64 67 1
63 67 68 1
64 68 69 1
65 68 70 1
66 68 71 1
67 72 73 1
68 72 74 1
69 72 76 1
70 75 76 1
71 76 77 1
72 77 78 1
73 77 79 1
74 78 80 1
75 78 81 1
76 81 82 1
77 82 83 1
78 82 84 1
79 82 85 1
80 86 87 1
81 86 88 1
82 86 90 1
83 89 90 1
84 90 91 1
85 91 92 1
86 91 93 1
87 92 94 1
88 92 95 1
89 95 96 1
90 96 97 1
91 96 98 1
92 96 99 1
93 100 101 1
94 100 102 1
95 100 104 1
96 103 104 1
97 104 105 1
98 105 106 1
99 105 107 1
100 106 108 1
101 106 109 1
102 109 110 1
103 110 111 1
104 110 112 1
105 110 113 1
106 114 115 1
107 114 116 1
108 114 118 1
109 117 118 1
110 118 119 1
111 119 120 1
112 119 121 1
113 120 122 1
114 120 123 1
115 123 124 1
116 124 125 1
117 124 126 1
118 124 127 1
119 128 129 1
120 128 130 1
121 128 132 1
122 131 132 1
123 132 133 1
124 133 134 1
125 133 135 1
126 134 136 1
127 134 137 1
128 137 138 1
129 138 139 1
130 138 140 1
131 138 141 1
132 142 143 1
133 142 144 1
134 142 146 1
135 145 146 1
136 146 147 1
137 147 148 1
138 147 149 1
139 148 150 1
140 148 151 1
141 151 152 1
142 152 153 1
143 152 154 1
144 152 155 1
145 156 157 1
146 156 158 1
147 156 160 1
148 159 160 1
149 160 161 1
150 161 162 1
151 161 163 1
152 162 164 1
153 162 165 1
154 165 166 1
155 166 167 1
156 166 168 1
157 166 169 1
158 170 171 1
159 170 172 1
160 170 174 1
161 173 174 1
162 174 175 1
163 175 176 1
164 175 177 1
165 176 178 1
166 176 179 1
167 179 180 1
168 180 181 1
169 180 182 1
170 180 183 1
171 184 185 1
172 184 186 1
173 184 188 1
174 187 188 1
175 188 189 1
176 189 190 1
177 189 191 1
178 190 192 1
179 190 193 1
180 193 194 1
181 194 195 1
182 194 196 1
183 194 197 1
184 198 199 1
185 198 200 1
186 198 202 1
187 201 202 1
188 202 203 1
189 203 204 1
190 203 205 1
191 204 206 1
192 204 207 1
193 207 208 1
194 208 209 1
195 208 210 1
196 208 211 1
197 212 213 1
198 212 214 1
199 212 216 1
200 215 216 1
201 216 217 1
202 217 218 1
203 217 219 1
204 218 220 1
205 218 221 1
206 221 222 1
207 222 223 1
208 222 224 1
209 222 225 1
210 226 227 1
211 226 228 1
212 226 230 1
213 229 230 1
214 230 231 1
215 231 232 1
216 231 233 1
217 232 234 1
218 232 235 1
219 235 236 1
220 236 237 1
221 236 238 1
222 236 239 1
223 240 241 1
224 240 242 1
225 240 244 1
226 243 244 1
227 244 245 1
228 245 246 1
229 245 247 1
230 246 248 1
231 246 249 1
232 249 250 1
233 250 251 1
234 250 252 1
235 250 253 1
236 254 255 1
237 254 256 1
238 254 258 1
239 257 258 1
240 258 259 1
241 259 260 1
242 259 261 1
243 260 262 1
244 260 263 1
245 263 264 1
246 264 265 1
247 264 266 1
248 264 267 1
249 268 269 1
250 268 270 1
251 268 272 1
252 271 272 1
253 272 273 1
254 273 274 1
255 273 275 1
256 274 276 1
257 274 277 1
258 277 278 1
259 278 279 1
260 278 280 1
261 278 281 1
262 282 283 1
263 282 284 1
264 282 286 1
265 285 286 1
266 286 287 1
267 287 288 1
268 287 289 1
269 288 290 1
270 288 291 1
271 291 292 1
272 292 293 1
273 292 294 1
274 292 295 1
275 296 297 1
276 296 298 1
277 296 300 1
278 299 300 1
279 300 301 1
280 301 302 1
281 301 303 1
282 302 304 1
283 302 305 1
284 305 306 1
285 306 307 1
286 306 308 1
287 306 309 1
288 310 311 1
289 310 312 1
290 310 314 1
291 313 314 1
292 314 315 1
293 315 316 1
294 315 317 1
295 316 318 1
296 316 319 1
297 319 320 1
298 320 321 1
299 320 322 1
300 320 323 1
301 324 325 1
302 324 326 1
303 324 328 1
304 327 328 1
305 328 329 1
306 329 330 1
307 329 331 1
308 330 332 1
309 330 333 1
310 333 334 1
311 334 335 1
312 334 336 1
313 334 337 1
314 338 339 1
315 338 340 1
316 338 342 1
317 341 342 1
318 342 343 1
319 343 344 1
320 343 345 1
321 344 346 1
322 344 347 1
323 347 348 1
324 348 349 1
325 348 350 1
326 348 351 1
327 352 353 1
328 352 354 1
329 352 356 1
330 355 356 1
331 356 357 1
332 357 358 1
333 357 359 1
334 358 360 1
335 358 361 1
336 361 362 1
337 362 363 1
338 362 364 1
339 362 365 1
340 366 367 1
341 366 368 1
342 366 370 1
343 369 370 1
344 370 371 1
345 371 372 1
346 371 373 1
347 372 374 1
348 372 375 1
349 375 376 1
350 376 377 1
351 376 378 1
352 376 379 1
353 380 381 1
354 380 382 1
355 380 384 1
356 383 384 1
357 384 385 1
358 385 386 1
359 385 387 1
360 386 388 1
361 386 389 1
362 389 390 1
363 390 391 1
364 390 392 1
365 390 393 1
366 394 395 1
367 394 396 1
368 394 398 1
369 397 398 1
370 398 399 1
371 399 400 1
372 399 401 1
373 400 402 1
374 400 403 1
375 403 404 1
376 404 405 1
377 404 406 1
378 404 407 1
379 408 409 1
380 408 410 1
381 408 412 1
382 411 412 1
383 412 413 1
384 413 414 1
385 413 415 1
386 414 416 1
387 414 417 1
388 417 418 1
389 418 419 1
390 418 420 1
391 418 421 1
392 422 423 1
393 422 424 1
394 422 426 1
395 425 426 1
396 426 427 1
397 427 428 1
398 427 429 1
399 428 430 1
400 428 431 1
401 431 432 1
402 432 433 1
403 432 434 1
404 432 435 1
405 436 437 1
406 436 438 1
407 436 440 1
408 439 440 1
409 440 441 1
410 441 442 1
411 441 443 1
412 442 444 1
413 442 445 1
414 445 446 1
415 446 447 1
416 446 448 1
417 446 449 1
418 450 451 1
419 450 452 1
420 450 454 1
421 453 454 1
422 454 455 1
423 455 456 1
424 455 457 1
425 456 458 1
426 456 459 1
427 459 460 1
428 460 461 1
429 460 462 1
430 460 463 1
431 464 465 1
432 464 466 1
433 464 468 1
434 467 468 1
435 468 469 1
436 469 470 1
437 469 471 1
438 470 472 1
439 470 473 1
440 473 474 1
441 474 475 1
442 474 476 1
443 474 477 1
444 478 479 1
445 478 480 1
446 478 482 1
447 481 482 1
448 482 483 1
449 483 484 1
450 483 485 1
451 484 486 1
452 484 487 1
453 487 488 1
454 488 489 1
455 488 490 1
456 488 491 1
457 492 493 1
458 492 494 1
459 492 496 1
460 495 496 1
461 496 497 1
462 497 498 1
463 497 499 1
464 498 500 1
465 498 501 1
466 501 502 1
467 502 503 1
468 502 504 1
469 502 505 1
470 506 507 1
471 506 508 1
472 506 510 1
473 509 510 1
474 510 511 1
475 511 512 1
476 511 513 1
477 512 514 1
478 512 515 1
479 515 516 1
480 516 517 1
481 516 518 1
482 516 519 1
483 520 521 1
484 520 522 1
485 520 524 1
486 523 524 1
487 524 525 1
488 525 526 1
489 525 527 1
490 526 528 1
491 526 529 1
492 529 530 1
493 530 531 1
494 530 532 1
495 530 533 1
496 534 535 1
497 534 536 1
498 534 538 1
499 537 538 1
500 538 539 1
501 539 540 1
502 539 541 1
503 540 542 1
504 540 543 1
505 543 544 1
506 544 545 1
507 544 546 1
508 544 547 1
509 548 549 1
510 548 550 1
511 548 552 1
512 551 552 1
513 552 553 1
514 553 554 1
515 553 555 1
516 554 556 1
517 554 557 1
518 557 558 1
519 558 559 1
520 558 560 1
521 558 561 1
522 562 563 1
523 562 564 1
524 562 566 1
525 565 566 1
526 566 567 1
527 567 568 1
528 567 569 1
529 568 570 1
530 568 571 1
531 571 572 1
532 572 573 1
533 572 574 1
534 572 575 1
535 576 577 1
536 576 578 1
537 576 580 1
538 579 580 1
539 580 581 1
540 581 582 1
541 581 583 1
542 582 584 1
543 582 585 1
544 585 586 1
545 586 587 1
546 586 588 1
547 586 589 1
548 590 591 1
549 590 592 1
550 590 594 1
551 593 594 1
552 594 595 1
553 595 596 1
554 595 597 1
555 596 598 1
556 596 599 1
557 599 600 1
558 600 601 1
559 600 602 1
560 600 603 1
561 604 605 1
562 604 606 1
563 604 608 1
564 607 608 1
565 608 609 1
566 609 610 1
567 609 611 1
568 610 612 1
569 610 613 1
570 613 614 1
571 614 615 1
572 614 616 1
573 614 617 1
574 618 619 1
575 618 620 1
576 618 622 1
577 621 622 1
578 622 623 1
579 623 624 1
580 623 625 1
581 624 626 1
582 624 627 1
583 627 628 1
584 628 629 1
585 628 630 1
586 628 631 1
587 632 633 1
588 632 634 1
589 632 636 1
590 635 636 1
591 636 637 1
592 637 638 1
593 637 639 1
594 638 640 1
595 638 641 1
596 641 642 1
597 642 643 1
598 642 644 1
599 642 645 1
600 646 647 1
601 646 648 1
602 646 650 1
603 649 650 1
604 650 651 1
605 651 652 1
606 651 653 1
607 652 654 1
608 652 655 1
609 655 656 1
610 656 657 1
611 656 658 1
612 656 659 1
613 660 661 1
614 660 662 1
615 660 664 1
616 663 664 1
617 664 665 1
618 665 666 1
619 665 667 1
620 666 668 1
621 666 669 1
622 669 670 1
623 670 671 1
624 670 672 1
625 670 673 1
626 674 675 1
627 674 676 1
628 674 678 1
629 677 678 1
630 678 679 1
631 679 680 1
632 679 681 1
633 680 682 1
634 680 683 1
635 683 684 1
636 684 685 1
637 684 686 1
638 684 687 1
639 688 689 1
640 688 690 1
641 688 692 1
642 691 692 1
643 692 693 1
644 693 694 1
645 693 695 1
646 694 696 1
647 694 697 1
648 697 698 1
649 698 699 1
650 698 700 1
651 698 701 1
652 702 703 1
653 702 704 1
654 702 706 1
655 705 706 1
656 706 707 1
657 707 708 1
658 707 709 1
659 708 710 1
660 708 711 1
661 711 712 1
662 712 713 1
663 712 714 1
664 712 715 1
665 716 717 1
666 716 718 1
667 716 720 1
668 719 720 1
669 720 721 1
670 721 722 1
671 721 723 1
672 722 724 1
673 722 725 1
674 725 726 1
675 726 727 1
676 726 728 1
677 726 729 1
678 730 731 1
679 730 732 1
680 730 734 1
681 733 734 1
682 734 735 1
683 735 736 1
684 735 737 1
685 736 738 1
686 736 739 1
687 739 740 1
688 740 741 1
689 740 742 1
690 740 743 1
691 744 745 1
692 744 746 1
693 744 748 1
694 747 748 1
695 748 749 1
696 749 750 1
697 749 751 1
698 750 752 1
699 750 753 1
700 753 754 1
701 754 755 1
702 754 756 1
703 754 757 1
704 758 759 1
705 758 760 1
706 758 762 1
707 761 762 1
708 762 763 1
709 763 764 1
710 763 765 1
711 764 766 1
712 764 767 1
713 767 768 1
714 768 769 1
715 768 770 1
716 768 771 1
717 772 773 1
718 772 774 1
719 772 776 1
720 775 776 1
721 776 777 1
722 777 778 1
723 777 779 1
724 778 780 1
725 778 781 1
726 781 782 1
727 782 783 1
728 782 784 1
729 782 785 1
730 786 787 1
731 786 788 1
732 786 790 1
733 789 790 1
734 790 791 1
735 791 792 1
736 791 793 1
737 792 794 1
738 792 795 1
739 795 796 1
740 796 797 1
741 796 798 1
742 796 799 1
743 800 801 1
744 800 802 1
745 800 804 1
746 803 804 1
747 804 805 1
748 805 806 1
749 805 807 1
750 806 808 1
751 806 809 1
752 809 810 1
753 810 811 1
754 810 812 1
755 810 813 1
756 814 815 1
757 814 816 1
758 814 818 1
759 817 818 1
760 818 819 1
761 819 820 1
762 819 821 1
763 820 822 1
764 820 823 1
765 823 824 1
766 824 825 1
767 824 826 1
768 824 827 1
769 828 829 1
770 828 830 1
771 828 832 1
772 831 832 1
773 832 833 1
774 833 834 1
775 833 835 1
776 834 836 1
777 834 837 1
778 837 838 1
779 838 839 1
780 838 840 1
781 838 841 1
782 842 843 1
783 842 844 1
784 842 846 1
785 845 846 1
786 846 847 1
787 847 848 1
788 847 849 1
789 848 850 1
790 848 851 1
791 851 852 1
792 852 853 1
793 852 854 1
794 852 855 1
795 856 857 1
796 856 858 1
797 856 860 1
798 859 860 1
799 860 861 1
800 861 862 1
801 861 863 1
802 862 864 1
803 862 865 1
804 865 866 1
805 866 867 1
806 866 868 1
807 866 869 1
808 870 871 1
809 870 872 1
810 870 874 1
811 873 874 1
812 874 875 1
813 875 876 1
814 875 877 1
815 876 878 1
816 876 879 1
817 879 880 1
818 880 881 1
819 880 882 1
820 880 883 1
821 884 885 1
822 884 886 1
823 884 888 1
824 887 888 1
825 888 889 1
826 889 890 1
827 889 891 1
828 890 892 1
829 890 893 1
830 893 894 1
831 894 895 1
832 894 896 1
833 894 897 1
834 898 899 1
835 898 900 1
836 898 902 1
837 901 902 1
838 902 903 1
839 903 904 1
840 903 905 1
841 904 906 1
842 904 907 1
843 907 908 1
844 908 909 1
845 908 910 1
846 908 911 1
847 912 913 1
848 912 914 1
849 912 916 1
850 915 916 1
851 916 917 1
852 917 918 1
853 917 919 1
854 918 920 1
855 918 921 1
856 921 922 1
857 922 923 1
858 922 924 1
859 922 925 1
860 926 927 1
861 926 928 1
862 926 930 1
863 929 930 1
864 930 931 1
865 931 932 1
866 931 933 1
867 932 934 1
868 932 935 1
869 935 936 1
870 936 937 1
871 936 938 1
872 936 939 1
873 940 941 1
874 940 942 1
875 940 944 1
876 943 944 1
877 944 945 1
878 945 946 1
879 945 947 1
880 946 948 1
881 946 949 1
882 949 950 1
883 950 951 1
884 950 952 1
885 950 953 1
886 954 955 1
887 954 956 1
888 954 958 1
889 957 958 1
890 958 959 1
891 959 960 1
892 959 961 1
893 960 962 1
894 960 963 1
895 963 964 1
896 964 965 1
897 964 966 1
898 964 967 1
899 968 969 1
900 968 970 1
901 968 972 1
902 971 972 1
903 972 973 1
904 973 974 1
905 973 975 1
906 974 976 1
907 974 977 1
908 977 978 1
909 978 979 1
910 978 980 1
911 978 981 1
912 982 983 1
913 982 984 1
914 982 986 1
915 985 986 1
916 986 987 1
917 987 988 1
918 987 989 1
919 988 990 1
920 988 991 1
921 991 992 1
922 992 993 1
923 992 994 1
924 992 995 1
925 996 997 1
926 996 998 1
927 996 1000 1
928 999 1000 1
929 1000 1001 1
930 1001 1002 1
931 1001 1003 1
932 1002 1004 1
933 1002 1005 1
934 1005 1006 1
935 1006 1007 1
936 1006 1008 1
937 1006 1009 1
938 1010 1011 1
939 1010 1012 1
940 1010 1014 1
941 1013 1014 1
942 1014 1015 1
943 1015 1016 1
944 1015 1017 1
945 1016 1018 1
946 1016 1019 1
947 1019 1020 1
948 1020 1021 1
949 1020 1022 1
950 1020 1023 1
951 1024 1025 1
952 1024 1026 1
953 1024 1028 1
954 1027 1028 1
955 1028 1029 1
956 1029 1030 1
957 1029 1031 1
958 1030 1032 1
959 1030 1033 1
960 1033 1034 1
961 1034 1035 1
962 1034 1036 1
963 1034 1037 1
964 1038 1039 1
965 1038 1040 1
966 1038 1042 1
967 1041 1042 1
968 1042 1043 1
969 1043 1044 1
970 1043 1045 1
971 1044 1046 1
972 1044 1047 1
973 1047 1048 1
974 1048 1049 1
975 1048 1050 1
976 1048 1051 1
977 1052 1053 1
978 1052 1054 1
979 1052 1056 1
980 1055 1056 1
981 1056 1057 1
982 1057 1058 1
983 1057 1059 1
984 1058 1060 1
985 1058 1061 1
986 1061 1062 1
987 1062 1063 1
988 1062 1064 1
989 1062 1065 1
990 1066 1067 1
991 1066 1068 1
992 1066 1070 1
993 1069 1070 1
994 1070 1071 1
995 1071 1072 1
996 1071 1073 1
997 1072 1074 1
998 1072 1075 1
999 1075 1076 1
1000 1076 1077 1
1001 1076 1078 1
1002 1076 1079 1
1003 1080 1081 1
1004 1080 1082 1
1005 1080 1084 1
1006 1083 1084 1
1007 1084 1085 1
1008 1085 1086 1
1009 1085 1087 1
1010 1086 1088 1
1011 1086 1089 1
1012 1089 1090 1
1013 1090 1091 1
1014 1090 1092 1
1015 1090 1093 1
1016 1094 1095 1
1017 1094 1096 1
1018 1094 1098 1
1019 1097 1098 1
1020 1098 1099 1
1021 1099 1100 1
1022 1099 1101 1
1023 1100 1102 1
1024 1100 1103 1
1025 1103 1104 1
1026 1104 1105 1
1027 1104 1106 1
1028 1104 1107 1
1029 1108 1109 1
1030 1108 1110 1
1031 1108 1112 1
1032 1111 1112 1
1033 1112 1113 1
1034 1113 1114 1
1035 1113 1115 1
1036 1114 1116 1
1037 1114 1117 1
1038 1117 1118 1
1039 1118 1119 1
1040 1118 1120 1
1041 1118 1121 1
1042 1122 1123 1
1043 1122 1124 1
1044 1122 1126 1
1045 1125 1126 1
1046 1126 1127 1
1047 1127 1128 1
1048 1127 1129 1
1049 1128 1130 1
1050 1128 1131 1
1051 1131 1132 1
1052 1132 1133 1
1053 1132 1134 1
1054 1132 1135 1
1055 1136 1137 1
1056 1136 1138 1
1057 1136 1140 1
1058 1139 1140 1
1059 1140 1141 1
1060 1141 1142 1
1061 1141 1143 1
1062 1142 1144 1
1063 1142 1145 1
1064 1145 1146 1
1065 1146 1147 1
1066 1146 1148 1
1067 1146 1149 1
1068 1150 1151 1
1069 1150 1152 1
1070 1150 1154 1
1071 1153 1154 1
1072 1154 1155 1
1073 1155 1156 1
1074 1155 1157 1
1075 1156 1158 1
1076 1156 1159 1
1077 1159 1160 1
1078 1160 1161 1
1079 1160 1162 1
1080 1160 1163 1
1081 1164 1165 1
1082 1164 1166 1
1083 1164 1168 1
1084 1167 1168 1
1085 1168 1169 1
1086 1169 1170 1
1087 1169 1171 1
1088 1170 1172 1
1089 1170 1173 1
1090 1173 1174 1
1091 1174 1175 1
1092 1174 1176 1
1093 1174 1177 1
1094 1178 1179 1
1095 1178 1180 1
1096 1178 1182 1
1097 1181 1182 1
1098 1182 1183 1
1099 1183 1184 1
1100 1183 1185 1
1101 1184 1186 1
1102 1184 1187 1
1103 1187 1188 1
1104 1188 1189 1
1105 1188 1190 1
1106 1188 1191 1
1107 1192 1193 1
1108 1192 1194 1
1109 1192 1196 1
1110 1195 1196 1
1111 1196 1197 1
1112 1197 1198 1
1113 1197 1199 1
1114 1198 1200 1
1115 1198 1201 1
1116 1201 1202 1
1117 1202 1203 1
1118 1202 1204 1
1119 1202 1205 1
1120 1206 1207 1
1121 1206 1208 1
1122 1206 1210 1
1123 1209 1210 1
1124 1210 1211 1
1125 1211 1212 1
1126 1211 1213 1
1127 1212 1214 1
1128 1212 1215 1
1129 1215 1216 1
1130 1216 1217 1
1131 1216 1218 1
1132 1216 1219 1
1133 1220 1221 1
1134 1220 1222 1
1135 1220 1224 1
1136 1223 1224 1
1137 1224 1225 1
1138 1225 1226 1
1139 1225 1227 1
1140 1226 1228 1
1141 1226 1229 1
1142 1229 1230 1
1143 1230 1231 1
1144 1230 1232 1
1145 1230 1233 1
1146 1234 1235 1
1147 1234 1236 1
1148 1234 1238 1
1149 1237 1238 1
1150 1238 1239 1
1151 1239 1240 1
1152 1239 1241 1
1153 1240 1242 1
1154 1240 1243 1
1155 1243 1244 1
1156 1244 1245 1
1157 1244 1246 1
1158 1244 1247 1
1159 1248 1249 1
1160 1248 1250 1
1161 1248 1252 1
1162 1251 1252 1
1163 1252 1253 1
1164 1253 1254 1
1165 1253 1255 1
1166 1254 1256 1
1167 1254 1257 1
1168 1257 1258 1
1169 1258 1259 1
1170 1258 1260 1
1171 1258 1261 1
1172 1262 1263 1
1173 1262 1264 1
1174 1262 1266 1
1175 1265 1266 1
1176 1266 1267 1
1177 1267 1268 1
1178 1267 1269 1
1179 1268 1270 1
1180 1268 1271 1
1181 1271 1272 1
1182 1272 1273 1
1183 1272 1274 1
1184 1272 1275 1
1185 1276 1277 1
1186 1276 1278 1
1187 1276 1280 1
1188 1279 1280 1
1189 1280 1281 1
1190 1281 1282 1
1191 1281 1283 1
1192 1282 1284 1
1193 1282 1285 1
1194 1285 1286 1
1195 1286 1287 1
1196 1286 1288 1
1197 1286 1289 1
