@<TRIPOS>MOLECULE
Molecule Name
673 625
SMALL
NO_CHARGES

@<TRIPOS>ATOM
1 C1	0.0000	0.0000	0.0000 C
2 C2	-1.3390	0.0000	0.0000 C
3 H3	0.5559	0.9314	0.0000 H
4 H4	0.5686	-0.9265	-0.0001 H
5 H5	-1.9061	0.9226	-0.0001 H
6 C6	-2.0971	-1.2694	-0.0002 C
7 O7	-1.6031	-2.3842	-0.0014 O
8 O8	-3.4183	-0.9633	-0.0029 O
9 C9	-4.3117	-2.0860	0.0018 C
10 C10	-4.5751	-2.5519	-1.4179 C
11 H11	-5.2481	-1.7477	0.4576 H
12 H12	-3.9261	-2.9004	0.6260 H
13 H13	-4.9608	-1.7282	-2.0275 H
14 H14	-5.3011	-3.3697	-1.4293 H
15 H15	-3.6526	-2.8968	-1.8957 H
16 C16	-3.8743	-9.0316	-0.4704 C
17 H17	-4.6920	-9.7461	-0.4713 H
18 H18	-4.1381	-7.9866	-0.3565 H
19 H19	-2.4346	-10.5238	-0.7148 H
20 C20	-2.6123	-9.4544	-0.6054 C
21 C21	-1.4200	-8.6378	-0.6242 C
22 C22	-1.3520	-7.3071	-0.5103 C
23 H23	-0.4872	-9.1868	-0.7451 H
24 H24	-2.2185	-6.6726	-0.3868 H
25 O25	-0.1483	-6.6516	-0.5444 O
26 C26	-0.2897	-5.2406	-0.4073 C
27 H27	0.7080	-4.7938	-0.4441 H
28 H28	-0.7447	-4.9873	0.5564 H
29 H29	-0.8823	-4.8274	-1.2306 H
30 C30	-0.3779	-9.3023	-3.0042 C
31 H31	-0.5863	-10.3372	-3.2585 H
32 H32	-1.1735	-8.7479	-2.5202 H
33 H33	1.5595	-9.3954	-3.7770 H
34 C34	0.8149	-8.7674	-3.2888 C
35 C35	1.2473	-7.4153	-3.0180 C
36 C36	0.5387	-6.4438	-2.4327 C
37 H37	2.2639	-7.1847	-3.3333 H
38 H38	-0.4768	-6.5714	-2.0845 H
39 O39	1.0717	-5.1964	-2.2342 O
40 C40	0.1594	-4.3066	-1.5972 C
41 H41	0.6564	-3.3398	-1.4756 H
42 H42	-0.1174	-4.6785	-0.6048 H
43 H43	-0.7341	-4.1591	-2.2135 H
44 C44	-2.5965	-9.2963	2.4063 C
45 H45	-3.1437	-10.2323	2.4671 H
46 H46	-3.0629	-8.4924	1.8488 H
47 H47	-1.0081	-10.0327	3.5438 H
48 C48	-1.4053	-9.1743	3.0029 C
49 C49	-0.5563	-8.0049	3.0162 C
50 C50	-0.7997	-6.8248	2.4359 C
51 H51	0.3779	-8.1198	3.5642 H
52 H52	-1.6958	-6.6102	1.8705 H
53 O53	0.0958	-5.7906	2.5258 O
54 C54	-0.3475	-4.6221	1.8419 C
55 H55	0.4168	-3.8485	1.9601 H
56 H56	-1.2830	-4.2503	2.2737 H
57 H57	-0.4725	-4.8216	0.7722 H
58 C58	-2.5028	-10.5978	-2.3446 C
59 H59	-2.6293	-11.5524	-2.8464 H
60 H60	-1.4852	-10.2670	-2.1721 H
61 H61	-4.5621	-10.2941	-2.1821 H
62 C62	-3.5734	-9.8883	-1.9701 C
63 C63	-3.5757	-8.6092	-1.2975 C
64 C64	-2.5103	-7.8932	-0.9225 C
65 H65	-4.5632	-8.2032	-1.0826 H
66 H66	-1.4896	-8.2079	-1.0894 H
67 O67	-2.6528	-6.6863	-0.2877 O
68 C68	-1.4014	-6.0830	0.0278 C
69 H69	-1.5996	-5.1310	0.5287 H
70 H70	-0.8273	-5.8797	-0.8826 H
71 H71	-0.8250	-6.7172	0.7101 H
72 C72	4.3731	-7.7106	-0.5781 C
73 H73	5.0452	-8.4651	-0.9758 H
74 H74	3.3108	-7.9011	-0.6768 H
75 H75	5.9477	-6.4962	0.0583 H
76 C76	4.8656	-6.6094	0.0003 C
77 C77	4.1114	-5.5187	0.5748 C
78 C78	2.7805	-5.4032	0.6374 C
79 H79	4.7126	-4.7146	0.9968 H
80 H80	2.0972	-6.1451	0.2483 H
81 O81	2.1885	-4.3091	1.2136 O
82 C82	0.7658	-4.3759	1.1804 C
83 H83	0.3719	-3.4730	1.6558 H
84 H84	0.4043	-5.2452	1.7404 H
85 H85	0.4021	-4.4077	0.1477 H
86 C86	-2.7636	-10.4444	-2.2209 C
87 H87	-3.1720	-11.4371	-2.3849 H
88 H88	-3.4123	-9.7222	-1.7390 H
89 H89	-0.9299	-10.9442	-3.0852 H
90 C90	-1.5150	-10.1590	-2.6074 C
91 C91	-0.8283	-8.8957	-2.4627 C
92 C92	-1.3096	-7.7741	-1.9161 C
93 H93	0.1904	-8.8781	-2.8476 H
94 H94	-2.3064	-7.6887	-1.5064 H
95 O95	-0.5479	-6.6366	-1.8408 O
96 C96	-1.2404	-5.5541	-1.2258 C
97 H97	-0.5699	-4.6902	-1.2039 H
98 H98	-1.5142	-5.8033	-0.1949 H
99 H99	-2.1310	-5.2839	-1.8036 H
100 C100	1.4468	-8.4080	2.4892 C
101 H101	1.9702	-9.3417	2.3064 H
102 H102	1.0979	-7.8645	1.6189 H
103 H103	1.6418	-8.5853	4.5604 H
104 C104	1.2584	-7.9772	3.7416 C
105 C105	0.5867	-6.7649	4.1513 C
106 C106	0.0271	-5.8453	3.3578 C
107 H107	0.5434	-6.6031	5.2275 H
108 H108	0.0168	-5.9131	2.2789 H
109 O109	-0.5824	-4.7333	3.8789 O
110 C110	-1.1149	-3.8785	2.8712 C
111 H111	-1.5810	-3.0206	3.3645 H
112 H112	-1.8820	-4.3976	2.2865 H
113 H113	-0.3195	-3.5080	2.2156 H
114 C114	3.0871	-8.8312	4.0590 C
115 H115	3.6268	-9.5775	4.6343 H
116 H116	2.1267	-9.1270	3.6532 H
117 H117	4.5830	-7.3985	4.3214 H
118 C118	3.6110	-7.6136	3.8785 C
119 C119	3.0243	-6.5158	3.1442 C
120 C120	1.8487	-6.5086	2.5069 C
121 H121	3.6219	-5.6056	3.1205 H
122 H122	1.1828	-7.3595	2.4712 H
123 O123	1.4066	-5.3929	1.8438 O
124 C124	0.1351	-5.5882	1.2318 C
125 H125	-0.1455	-4.6593	0.7269 H
126 H126	-0.6280	-5.8148	1.9843 H
127 H127	0.1825	-6.3860	0.4828 H
128 C128	3.2983	-8.7315	-4.1365 C
129 H129	3.9037	-9.4954	-4.6152 H
130 H130	2.2943	-9.0157	-3.8434 H
131 H131	4.8181	-7.3053	-4.2586 H
132 C132	3.7982	-7.5075	-3.9329 C
133 C133	3.1273	-6.3871	-3.3140 C
134 C134	1.8816	-6.3612	-2.8281 C
135 H135	3.7192	-5.4754	-3.2465 H
136 H136	1.2147	-7.2118	-2.8470 H
137 O137	1.3630	-5.2251	-2.2624 O
138 C138	0.0249	-5.4025	-1.8068 C
139 H139	-0.3142	-4.4579	-1.3718 H
140 H140	-0.0226	-6.1749	-1.0315 H
141 H141	-0.6393	-5.6555	-2.6402 H
142 C142	-4.0144	-9.8921	-0.4130 C
143 H143	-4.6926	-10.7395	-0.3798 H
144 H144	-3.9921	-9.2491	0.4591 H
145 H145	-3.3401	-10.3759	-2.3288 H
146 C146	-3.2560	-9.6802	-1.4945 C
147 C147	-2.3098	-8.6064	-1.6950 C
148 C148	-2.0131	-7.6226	-0.8392 C
149 H149	-1.7939	-8.6198	-2.6541 H
150 H150	-2.4687	-7.5207	0.1359 H
151 O151	-1.0897	-6.6598	-1.1556 O
152 C152	-0.9169	-5.7039	-0.1135 C
153 H153	-0.1697	-4.9752	-0.4411 H
154 H154	-0.5504	-6.1858	0.7993 H
155 H155	-1.8533	-5.1712	0.0845 H
156 C156	4.6998	-5.4407	2.4746 C
157 H157	5.5406	-6.1163	2.3494 H
158 H158	3.7136	-5.8888	2.5105 H
159 H159	5.9306	-3.7551	2.5306 H
160 C160	4.9059	-4.1228	2.5767 C
161 C161	3.9019	-3.0972	2.7458 C
162 C162	2.5787	-3.2703	2.8322 C
163 H163	4.2875	-2.0805	2.8070 H
164 H164	2.0978	-4.2373	2.7827 H
165 O165	1.7316	-2.2044	2.9928 O
166 C166	0.3642	-2.5980	3.0629 C
167 H167	-0.2429	-1.6970	3.1903 H
168 H168	0.1919	-3.2534	3.9235 H
169 H169	0.0543	-3.0935	2.1365 H
170 C170	-2.9878	-7.5304	5.5094 C
171 H171	-3.4569	-8.3891	5.9804 H
172 H172	-3.2362	-7.3460	4.4707 H
173 H173	-1.9528	-7.0133	7.2473 H
174 C174	-2.1479	-6.7569	6.2065 C
175 C175	-1.4469	-5.5864	5.7300 C
176 C176	-1.5046	-5.0552	4.5040 C
177 H177	-0.8081	-5.1003	6.4660 H
178 H178	-2.1075	-5.4617	3.7041 H
179 O179	-0.7840	-3.9345	4.1806 O
180 C180	-0.9818	-3.5279	2.8296 C
181 H181	-0.3772	-2.6339	2.6516 H
182 H182	-2.0321	-3.2743	2.6498 H
183 H183	-0.6527	-4.3095	2.1363 H
184 C184	-1.3191	-11.0375	0.1083 C
185 H185	-1.4406	-12.1110	0.2177 H
186 H186	-0.3227	-10.6399	0.2624 H
187 H187	-3.3379	-10.7513	-0.3405 H
188 C188	-2.3700	-10.2703	-0.2027 C
189 C189	-2.3756	-8.8365	-0.3832 C
190 C190	-1.3333	-8.0057	-0.2739 C
191 H191	-3.3445	-8.4075	-0.6351 H
192 H192	-0.3323	-8.3317	-0.0283 H
193 O193	-1.4761	-6.6567	-0.4718 O
194 C194	-0.2513	-5.9473	-0.3100 C
195 H195	-0.4480	-4.8853	-0.4831 H
196 H196	0.4920	-6.2831	-1.0411 H
197 H197	0.1340	-6.0642	0.7087 H
198 C198	3.2612	-6.1596	5.9910 C
199 H199	3.8350	-6.4674	6.8600 H
200 H200	2.4718	-6.8266	5.6648 H
201 H201	4.3523	-4.3934	5.7687 H
202 C202	3.5413	-5.0054	5.3752 C
203 C203	2.8767	-4.4563	4.2153 C
204 C204	1.8577	-4.9965	3.5385 C
205 H205	3.2644	-3.4980	3.8726 H
206 H206	1.4024	-5.9422	3.7976 H
207 O207	1.3158	-4.3670	2.4477 O
208 C208	0.2426	-5.1032	1.8683 C
209 H209	-0.1328	-4.5384	1.0101 H
210 H210	-0.5768	-5.2251	2.5850 H
211 H211	0.5884	-6.0799	1.5128 H
212 C212	0.4563	-8.2273	-4.3216 C
213 H213	0.5887	-8.7292	-5.2754 H
214 H214	1.0533	-7.3394	-4.1492 H
215 H215	-0.9719	-9.6073	-3.6774 H
216 C216	-0.4109	-8.7083	-3.4237 C
217 C217	-0.7018	-8.1619	-2.1178 C
218 C218	-0.1604	-7.0737	-1.5600 C
219 H219	-1.4456	-8.7121	-1.5432 H
220 H220	0.5846	-6.4601	-2.0470 H
221 O221	-0.5275	-6.6610	-0.3052 O
222 C222	0.1622	-5.4847	0.1075 C
223 H223	-0.1840	-5.2221	1.1113 H
224 H224	-0.0607	-4.6479	-0.5633 H
225 H225	1.2421	-5.6626	0.1516 H
226 C226	3.1909	5.9161	-3.6411 C
227 H227	3.8489	6.7582	-3.8335 H
228 H228	2.8354	5.3660	-4.5046 H
229 H229	3.2567	6.2051	-1.5744 H
230 C230	2.8545	5.5991	-2.3857 C
231 C231	1.9953	4.5164	-1.9638 C
232 C232	1.3746	3.6273	-2.7465 C
233 H233	1.8520	4.4345	-0.8872 H
234 H234	1.4524	3.6232	-3.8248 H
235 O235	0.5825	2.6430	-2.2144 O
236 C236	0.0131	1.8000	-3.2118 C
237 H237	-0.6006	1.0462	-2.7101 H
238 H238	0.7961	1.2845	-3.7785 H
239 H239	-0.6311	2.3752	-3.8856 H
240 C240	0.1530	-6.7569	-1.0952 C
241 H241	0.5188	-6.9204	-0.0859 H
242 H242	0.1805	-7.6055	-1.7687 H
243 H243	-0.2959	-4.7531	-0.7178 H
244 C244	-0.3033	-5.5527	-1.4579 C
245 C245	-0.8206	-5.1739	-2.7530 C
246 C246	-0.9413	-5.9536	-3.8328 C
247 H247	-1.1411	-4.1363	-2.8358 H
248 H248	-0.6524	-6.9951	-3.8535 H
249 O249	-1.4516	-5.4657	-5.0081 O
250 C250	-1.4972	-6.4515	-6.0357 C
251 H251	-1.9134	-5.9869	-6.9342 H
252 H252	-2.1471	-7.2845	-5.7466 H
253 H253	-0.4910	-6.8148	-6.2708 H
254 C254	-0.0720	6.8905	0.5452 C
255 H255	-0.6108	7.7076	1.0156 H
256 H256	0.9421	7.0951	0.2225 H
257 H257	-1.6849	5.5791	0.7401 H
258 C258	-0.6613	5.7000	0.3867 C
259 C259	-0.0855	4.5191	-0.2153 C
260 C260	1.1434	4.3923	-0.7274 C
261 H261	-0.7414	3.6501	-0.2445 H
262 H262	1.8686	5.1938	-0.7466 H
263 O263	1.5675	3.2079	-1.2723 O
264 C264	2.9035	3.2782	-1.7618 C
265 H265	3.1651	2.3009	-2.1777 H
266 H266	3.6034	3.5053	-0.9504 H
267 H267	2.9867	4.0247	-2.5591 H
268 C268	-10.0317	0.5784	4.4654 C
269 H269	-10.6148	1.3686	4.9290 H
270 H270	-10.3808	-0.4371	4.6117 H
271 H271	-8.6580	1.9265	3.6562 H
272 C272	-8.9393	0.8784	3.7538 C
273 C273	-8.0608	-0.0493	3.0785 C
274 C274	-8.1727	-1.3813	3.0367 C
275 H275	-7.2235	0.4080	2.5531 H
276 H276	-8.9662	-1.9301	3.5244 H
277 O277	-7.2645	-2.1497	2.3553 O
278 C278	-7.5590	-3.5415	2.4316 C
279 H279	-6.7939	-4.0823	1.8670 H
280 H280	-8.5346	-3.7576	1.9830 H
281 H281	-7.5300	-3.8887	3.4701 H
282 C282	-2.9262	-6.7384	-0.3055 C
283 H283	-3.6145	-6.1471	-0.9020 H
284 H284	-3.2245	-7.7555	-0.0795 H
285 H285	-1.5502	-5.1752	-0.1575 H
286 C286	-1.7729	-6.2064	0.1146 C
287 C287	-0.7560	-6.8554	0.9104 C
288 C288	-0.7747	-8.1085	1.3771 C
289 H289	0.1106	-6.2382	1.1433 H
290 H290	-1.5871	-8.7998	1.2015 H
291 O291	0.2621	-8.6038	2.1251 O
292 C292	0.0514	-9.9547	2.5254 C
293 H293	0.9165	-10.2738	3.1137 H
294 H294	-0.0315	-10.6106	1.6519 H
295 H295	-0.8420	-10.0393	3.1535 H
296 C296	-8.9430	2.8625	-4.7802 C
297 H297	-9.8578	3.4432	-4.8513 H
298 H298	-8.2418	2.9521	-5.6017 H
299 H299	-9.4805	2.0507	-2.9332 H
300 C300	-8.7226	2.0831	-3.7154 C
301 C301	-7.5647	1.2536	-3.4709 C
302 C302	-6.4956	1.1079	-4.2609 C
303 H303	-7.5866	0.6957	-2.5358 H
304 H304	-6.3780	1.6167	-5.2075 H
305 O305	-5.4585	0.2835	-3.9083 O
306 C306	-4.4181	0.2663	-4.8813 C
307 H307	-3.6338	-0.4097	-4.5286 H
308 H308	-3.9830	1.2642	-5.0030 H
309 H309	-4.7895	-0.1088	-5.8411 H
310 C310	-1.6433	-4.7458	2.7952 C
311 H311	-1.8860	-3.7561	2.4202 H
312 H312	-1.9882	-4.9885	3.7936 H
313 H313	-0.6414	-5.2767	1.0421 H
314 C314	-0.9501	-5.6012	2.0354 C
315 C315	-0.5493	-6.9451	2.3846 C
316 C316	-0.7948	-7.5876	3.5315 C
317 H317	0.0125	-7.4731	1.6154 H
318 H318	-1.3428	-7.1519	4.3554 H
319 O319	-0.3549	-8.8699	3.7359 O
320 C320	-0.7175	-9.3749	5.0178 C
321 H321	-0.3327	-10.3953	5.1025 H
322 H322	-1.8068	-9.4077	5.1288 H
323 H323	-0.2697	-8.7711	5.8144 H
324 C324	-9.4170	2.5851	-4.0550 C
325 H325	-10.1887	2.8018	-4.7876 H
326 H326	-8.4268	2.9762	-4.2574 H
327 H327	-10.7303	1.5109	-2.8381 H
328 C328	-9.7082	1.8664	-2.9648 C
329 C329	-8.8018	1.4938	-1.9026 C
330 C330	-7.5025	1.7959	-1.8079 C
331 H331	-9.2468	0.9031	-1.1031 H
332 H332	-6.9682	2.3760	-2.5473 H
333 O333	-6.7516	1.3771	-0.7400 O
334 C334	-5.3942	1.8010	-0.8259 C
335 H335	-4.8655	1.4296	0.0567 H
336 H336	-5.3280	2.8944	-0.8318 H
337 H337	-4.9122	1.3837	-1.7166 H
338 C338	-7.4411	6.2517	2.4478 C
339 H339	-7.8894	7.0819	2.9854 H
340 H340	-6.9734	5.4779	3.0453 H
341 H341	-7.9722	7.0361	0.5872 H
342 C342	-7.4816	6.2163	1.1111 C
343 C343	-6.9361	5.1898	0.2526 C
344 C344	-6.2884	4.0825	0.6304 C
345 H345	-7.0796	5.3568	-0.8141 H
346 H346	-6.0954	3.8256	1.6627 H
347 O347	-5.8187	3.1840	-0.2925 O
348 C348	-5.1595	2.0743	0.3105 C
349 H349	-4.8165	1.4084	-0.4866 H
350 H350	-5.8482	1.5153	0.9532 H
351 H351	-4.2857	2.4050	0.8823 H
352 C352	-0.9928	4.0306	5.7341 C
353 H353	-0.3689	4.6226	6.3970 H
354 H354	-1.4310	3.1305	6.1493 H
355 H355	-0.7123	5.3406	4.1328 H
356 C356	-1.1907	4.4217	4.4701 C
357 C357	-1.9874	3.7511	3.4681 C
358 C358	-2.6767	2.6143	3.6136 C
359 H359	-2.0151	4.2425	2.4966 H
360 H360	-2.7133	2.0513	4.5358 H
361 O361	-3.3963	2.0817	2.5753 O
362 C362	-4.0577	0.8715	2.9322 C
363 H363	-4.6058	0.5126	2.0562 H
364 H364	-4.7764	1.0450	3.7404 H
365 H365	-3.3329	0.1034	3.2229 H
366 C366	0.3999	-4.6515	-2.1006 C
367 H367	-0.3550	-3.8757	-2.0139 H
368 H368	0.8383	-4.7998	-3.0806 H
369 H369	0.2586	-5.1579	-0.0800 H
370 C370	0.7494	-5.3720	-1.0290 C
371 C371	1.7296	-6.4327	-0.9776 C
372 C372	2.4721	-6.8945	-1.9895 C
373 H373	1.8615	-6.8913	0.0014 H
374 H374	2.4162	-6.5073	-2.9973 H
375 O375	3.3715	-7.9125	-1.8041 O
376 C376	4.0614	-8.2579	-3.0017 C
377 H377	4.7553	-9.0716	-2.7718 H
378 H378	4.6409	-7.4069	-3.3757 H
379 H379	3.3605	-8.6093	-3.7666 H
380 C380	-4.8306	0.2033	4.5358 C
381 H381	-4.6249	-0.7240	5.0621 H
382 H382	-5.2609	1.0104	5.1172 H
383 H383	-4.1219	-0.5492	2.7219 H
384 C384	-4.5540	0.3115	3.2314 C
385 C385	-4.7662	1.4682	2.3916 C
386 C386	-5.2784	2.6480	2.7580 C
387 H387	-4.4697	1.3430	1.3511 H
388 H388	-5.6023	2.8723	3.7648 H
389 O389	-5.4269	3.6694	1.8556 O
390 C390	-5.9888	4.8400	2.4418 C
391 H391	-6.0743	5.6029	1.6626 H
392 H392	-5.3393	5.2283	3.2338 H
393 H393	-6.9907	4.6355	2.8345 H
394 C394	-4.9357	0.3137	3.0473 C
395 H395	-4.3968	0.5537	2.1356 H
396 H396	-4.4593	-0.3818	3.7284 H
397 H397	-6.5369	1.5579	2.5499 H
398 C398	-6.1293	0.8679	3.2881 C
399 C399	-6.9685	0.6545	4.4451 C
400 C400	-6.7118	-0.1359	5.4929 C
401 H401	-7.9068	1.2074	4.4422 H
402 H402	-5.8106	-0.7250	5.5908 H
403 O403	-7.5991	-0.2490	6.5319 O
404 C404	-7.1420	-1.1374	7.5475 C
405 H405	-7.9004	-1.1727	8.3350 H
406 H406	-6.2059	-0.7765	7.9872 H
407 H407	-7.0124	-2.1495	7.1491 H
408 C408	-6.7046	7.0209	-2.2713 C
409 H409	-7.0086	8.0338	-2.5179 H
410 H410	-6.2952	6.4232	-3.0773 H
411 H411	-7.2637	7.2307	-0.2706 H
412 C412	-6.8425	6.5632	-1.0218 C
413 C413	-6.4888	5.2496	-0.5340 C
414 C414	-5.9577	4.2440	-1.2376 C
415 H415	-6.6848	5.0828	0.5243 H
416 H416	-5.7261	4.3087	-2.2915 H
417 O417	-5.6679	3.0402	-0.6489 O
418 C418	-5.1099	2.1032	-1.5655 C
419 H419	-4.9080	1.1753	-1.0226 H
420 H420	-4.1642	2.4752	-1.9743 H
421 H421	-5.8156	1.8824	-2.3736 H
422 C422	-1.2651	-4.4273	3.1894 C
423 H423	-1.0438	-3.7330	2.3842 H
424 H424	-1.9537	-5.2334	2.9646 H
425 H425	-0.0160	-3.4286	4.5316 H
426 C426	-0.6976	-4.2668	4.3902 C
427 C427	-0.8861	-5.0971	5.5579 C
428 C428	-1.6620	-6.1816	5.6597 C
429 H429	-0.3257	-4.7875	6.4389 H
430 H430	-2.2567	-6.5698	4.8446 H
431 O431	-1.7516	-6.8835	6.8339 O
432 C432	-2.6277	-8.0028	6.7368 C
433 H433	-2.6444	-8.5066	7.7075 H
434 H434	-2.2675	-8.7144	5.9860 H
435 H435	-3.6469	-7.6792	6.4995 H
436 C436	0.0942	-5.9856	0.5695 C
437 H437	0.6284	-5.0412	0.6128 H
438 H438	0.6924	-6.8805	0.4433 H
439 H439	-1.7646	-5.0621	0.7953 H
440 C440	-1.2396	-6.0086	0.6702 C
441 C441	-2.0936	-7.1738	0.6317 C
442 C442	-1.7136	-8.4479	0.4884 C
443 H443	-3.1585	-6.9683	0.7321 H
444 H444	-0.6828	-8.7559	0.3814 H
445 O445	-2.6322	-9.4655	0.4681 O
446 C446	-2.0274	-10.7453	0.3070 C
447 H447	-2.8211	-11.4980	0.3008 H
448 H448	-1.3523	-10.9641	1.1414 H
449 H449	-1.4900	-10.8042	-0.6456 H
450 C450	-5.8272	0.9418	1.7166 C
451 H451	-4.7506	0.7997	1.7104 H
452 H452	-6.3717	0.5167	2.5517 H
453 H453	-5.7996	2.0098	-0.0772 H
454 C454	-6.4220	1.6148	0.7252 C
455 C455	-7.8341	1.8890	0.5865 C
456 C456	-8.8126	1.5228	1.4213 C
457 H457	-8.1084	2.4567	-0.3015 H
458 H458	-8.6449	0.9583	2.3279 H
459 O459	-10.1202	1.8498	1.1705 O
460 C460	-11.0070	1.3689	2.1764 C
461 H461	-12.0234	1.6687	1.9051 H
462 H462	-10.7665	1.8099	3.1498 H
463 H463	-10.9744	0.2755	2.2331 H
464 C464	-2.0262	-6.7061	-0.4371 C
465 H465	-1.9353	-6.6935	-1.5192 H
466 H466	-2.6506	-7.4810	-0.0079 H
467 H467	-0.7768	-5.0489	-0.2103 H
468 C468	-1.3847	-5.7940	0.3019 C
469 C469	-1.4018	-5.6750	1.7421 C
470 C470	-2.0609	-6.4525	2.6078 C
471 H471	-0.8064	-4.8564	2.1440 H
472 H472	-2.6779	-7.2889	2.3104 H
473 O473	-1.9917	-6.2292	3.9588 O
474 C474	-2.7624	-7.1641	4.7081 C
475 H475	-2.6555	-6.9201	5.7689 H
476 H476	-2.3959	-8.1844	4.5511 H
477 H477	-3.8231	-7.0937	4.4440 H
478 C478	-2.5490	3.8401	-0.9935 C
479 H479	-3.4140	3.2823	-0.6472 H
480 H480	-2.3610	4.7957	-0.5179 H
481 H481	-2.0332	2.3740	-2.3876 H
482 C482	-1.7727	3.3430	-1.9630 C
483 C483	-0.5941	3.9559	-2.5320 C
484 C484	-0.0567	5.1341	-2.1982 C
485 H485	-0.1070	3.3779	-3.3161 H
486 H486	-0.4636	5.7818	-1.4343 H
487 O487	1.0714	5.6025	-2.8209 O
488 C488	1.4838	6.8721	-2.3233 C
489 H489	2.3835	7.1745	-2.8670 H
490 H490	1.7300	6.8108	-1.2577 H
491 H491	0.7086	7.6270	-2.4940 H
492 C492	-7.3581	6.2572	1.9500 C
493 H493	-7.8943	7.2011	1.9786 H
494 H494	-7.0710	5.8289	2.9032 H
495 H495	-7.4062	6.1755	-0.1357 H
496 C496	-7.0810	5.6770	0.7769 C
497 C497	-6.3805	4.4302	0.5687 C
498 C498	-5.8773	3.6212	1.5072 C
499 H499	-6.2609	4.1371	-0.4734 H
500 H500	-5.9434	3.8219	2.5674 H
501 O501	-5.2310	2.4595	1.1720 O
502 C502	-4.7702	1.7411	2.3126 C
503 H503	-4.2693	0.8336	1.9633 H
504 H504	-5.6096	1.4464	2.9517 H
505 H505	-4.0471	2.3361	2.8808 H
506 C506	-4.9785	-8.9307	5.7226 C
507 H507	-5.4633	-9.5840	6.4418 H
508 H508	-5.2297	-7.8775	5.7715 H
509 H509	-3.9203	-10.5055	4.8511 H
510 C510	-4.1168	-9.4339	4.8316 C
511 C511	-3.3931	-8.7045	3.8153 C
512 C512	-3.4473	-7.3904	3.5730 C
513 H513	-2.7386	-9.3108	3.1908 H
514 H514	-4.0646	-6.7038	4.1354 H
515 O515	-2.7042	-6.8213	2.5713 O
516 C516	-2.9021	-5.4138	2.4753 C
517 H517	-2.2789	-5.0377	1.6588 H
518 H518	-2.5953	-4.9141	3.4005 H
519 H519	-3.9477	-5.1830	2.2444 H
520 C520	-5.0501	7.4752	2.5068 C
521 H521	-5.4232	8.4946	2.5363 H
522 H522	-5.0749	6.9182	3.4362 H
523 H523	-4.5993	7.5903	0.4714 H
524 C524	-4.5886	6.9613	1.3610 C
525 C525	-4.0615	5.6315	1.1556 C
526 C526	-3.9352	4.6638	2.0700 C
527 H527	-3.7381	5.4160	0.1382 H
528 H528	-4.2263	4.7776	3.1049 H
529 O529	-3.4157	3.4385	1.7408 O
530 C530	-3.3652	2.5491	2.8525 C
531 H531	-2.9419	1.6004	2.5100 H
532 H532	-4.3707	2.3564	3.2422 H
533 H533	-2.7193	2.9492	3.6415 H
534 C534	-0.0287	4.0836	0.3289 C
535 H535	-0.8372	3.4762	0.7248 H
536 H536	-0.2939	4.8265	-0.4143 H
537 H537	1.4041	3.1286	1.5097 H
538 C538	1.2242	3.8981	0.7595 C
539 C539	2.4037	4.6179	0.3361 C
540 C540	2.4665	5.6042	-0.5649 C
541 H541	3.3305	4.3067	0.8159 H
542 H542	1.6051	5.9849	-1.0955 H
543 O543	3.6579	6.2066	-0.8770 O
544 C544	3.5129	7.2311	-1.8563 C
545 H545	4.5007	7.6593	-2.0492 H
546 H546	2.8575	8.0288	-1.4902 H
547 H547	3.1270	6.8195	-2.7953 H
548 C548	4.9703	-2.4043	-3.9448 C
549 H549	5.4461	-3.2651	-4.4052 H
550 H550	5.5597	-1.4973	-3.8780 H
551 H551	3.1926	-3.4432	-3.5988 H
552 C552	3.7145	-2.4927	-3.4920 C
553 C553	2.9439	-1.4469	-2.8589 C
554 C554	3.3389	-0.1945	-2.6059 C
555 H555	1.9349	-1.7319	-2.5641 H
556 H556	4.3187	0.1859	-2.8587 H
557 O557	2.5031	0.7045	-1.9953 O
558 C558	3.1099	1.9810	-1.8158 C
559 H559	2.3841	2.6365	-1.3259 H
560 H560	3.3766	2.4239	-2.7814 H
561 H561	3.9933	1.9045	-1.1727 H
562 C562	1.6431	-4.5902	0.0874 C
563 H563	1.1163	-3.6672	-0.1359 H
564 H564	2.7039	-4.5100	0.2944 H
565 H565	-0.0831	-5.7461	-0.1212 H
566 C566	0.9842	-5.7544	0.0982 C
567 C567	1.5350	-7.0617	0.3744 C
568 C568	2.8055	-7.3553	0.6711 C
569 H569	0.8197	-7.8818	0.3307 H
570 H570	3.5901	-6.6147	0.7390 H
571 O571	3.1986	-8.6463	0.9130 O
572 C572	4.5882	-8.7485	1.2101 C
573 H573	4.8209	-9.8021	1.3895 H
574 H574	4.8349	-8.1827	2.1151 H
575 H575	5.1929	-8.4016	0.3652 H
576 C576	1.7496	-3.8494	-2.0035 C
577 H577	0.9951	-3.2384	-1.5170 H
578 H578	2.7009	-3.3753	-2.2151 H
579 H579	0.5020	-5.5224	-2.0653 H
580 C580	1.4852	-5.1236	-2.3135 C
581 C581	2.3743	-6.0633	-2.9577 C
582 C582	3.6279	-5.8380	-3.3656 C
583 H583	1.9573	-7.0564	-3.1186 H
584 H584	4.1318	-4.8883	-3.2521 H
585 O585	4.3673	-6.8233	-3.9672 O
586 C586	5.6742	-6.3844	-4.3265 C
587 H587	6.1967	-7.2221	-4.7973 H
588 H588	6.2401	-6.0810	-3.4390 H
589 H589	5.6234	-5.5615	-5.0477 H
590 C590	-1.5576	-6.4685	-2.7825 C
591 H591	-0.7871	-5.7163	-2.9224 H
592 H592	-1.5008	-7.3495	-3.4112 H
593 H593	-2.5008	-5.3702	-1.2781 H
594 C594	-2.5175	-6.2856	-1.8688 C
595 C595	-3.6070	-7.1840	-1.5618 C
596 C596	-3.8622	-8.3666	-2.1318 C
597 H597	-4.2809	-6.8405	-0.7783 H
598 H598	-3.2549	-8.7955	-2.9166 H
599 O599	-4.9368	-9.1249	-1.7446 O
600 C600	-5.0343	-10.3467	-2.4708 C
601 H601	-5.9106	-10.8902	-2.1057 H
602 H602	-4.1489	-10.9697	-2.3040 H
603 H603	-5.1703	-10.1535	-3.5403 H
604 C604	-8.3681	-1.4752	-1.2650 C
605 H605	-7.7387	-1.4087	-2.1474 H
606 H606	-8.6857	-0.5398	-0.8192 H
607 H607	-8.3536	-3.5629	-1.2862 H
608 C608	-8.7168	-2.6709	-0.7767 C
609 C609	-9.5425	-2.9292	0.3809 C
610 C610	-10.1138	-2.0237	1.1823 C
611 H611	-9.7037	-3.9824	0.6064 H
612 H612	-10.0149	-0.9561	1.0442 H
613 O613	-10.8785	-2.4055	2.2543 O
614 C614	-11.3961	-1.2945	2.9805 C
615 H615	-11.9906	-1.6801	3.8138 H
616 H616	-12.0483	-0.6849	2.3457 H
617 H617	-10.5833	-0.6854	3.3906 H
618 C618	-3.1237	4.8476	6.2695 C
619 H619	-3.1612	5.7120	6.9257 H
620 H620	-2.7300	3.9302	6.6913 H
621 H621	-3.9326	5.9051	4.6612 H
622 C622	-3.5512	4.9443	5.0055 C
623 C623	-3.5681	3.8952	4.0118 C
624 C624	-3.1606	2.6309	4.1666 C
625 H625	-3.9593	4.1885	3.0386 H
626 H626	-2.7575	2.2417	5.0911 H
627 O627	-3.2314	1.7301	3.1355 O
628 C628	-2.7497	0.4404	3.5016 C
629 H629	-2.8391	-0.2158	2.6310 H
630 H630	-3.3502	0.0174	4.3143 H
631 H631	-1.6941	0.4871	3.7902 H
632 C632	-5.5841	2.1579	-4.3676 C
633 H633	-5.2378	1.4875	-5.1485 H
634 H634	-6.1075	3.0516	-4.6870 H
635 H635	-4.8245	0.9450	-2.8474 H
636 C636	-5.3590	1.8651	-3.0818 C
637 C637	-5.7518	2.6466	-1.9314 C
638 C638	-6.4136	3.8087	-1.9336 C
639 H639	-5.4677	2.2243	-0.9685 H
640 H640	-6.7395	4.3093	-2.8346 H
641 O641	-6.7260	4.4508	-0.7632 O
642 C642	-7.4302	5.6702	-0.9793 C
643 H643	-7.6411	6.1184	-0.0041 H
644 H644	-8.3834	5.4842	-1.4859 H
645 H645	-6.8209	6.3739	-1.5568 H
646 C646	-7.3154	-0.6748	3.8026 C
647 H647	-6.3551	-0.2255	4.0376 H
648 H648	-8.1994	-0.1203	4.0954 H
649 H649	-6.4322	-2.3488	2.9212 H
650 C650	-7.3697	-1.8579	3.1806 C
651 C651	-8.5591	-2.5852	2.7998 C
652 C652	-9.8288	-2.2144	2.9966 C
653 H653	-8.3778	-3.5356	2.2998 H
654 H654	-10.1137	-1.2915	3.4822 H
655 O655	-10.8715	-3.0029	2.5834 O
656 C656	-12.1417	-2.4326	2.8850 C
657 H657	-12.9156	-3.1171	2.5261 H
658 H658	-12.2679	-1.4721	2.3737 H
659 H659	-12.2657	-2.3096	3.9664 H
660 C660	-6.3573	-7.1526	-3.9609 C
661 H661	-6.8483	-6.9250	-4.9024 H
662 H662	-5.6698	-7.9903	-3.9579 H
663 H663	-7.3168	-5.5886	-2.9647 H
664 C664	-6.6113	-6.4140	-2.8747 C
665 C665	-6.0449	-6.5850	-1.5562 C
666 C666	-5.1609	-7.5122	-1.1722 C
667 H667	-6.3895	-5.8702	-0.8103 H
668 H668	-4.7583	-8.2652	-1.8352 H
669 O669	-4.7011	-7.5642	0.1183 O
670 C670	-3.7683	-8.6210	0.3246 C
671 H671	-3.4511	-8.5952	1.3711 H
672 H672	-2.8831	-8.4870	-0.3066 H
673 H673	-4.2334	-9.5935	0.1300 H
@<TRIPOS>BOND
1 1 2 2
2 1 3 1
3 1 4 1
4 2 5 1
5 2 6 1
6 6 7 2
7 6 8 1
8 8 9 1
9 9 10 1
10 9 11 1
11 9 12 1
12 10 13 1
13 10 14 1
14 10 15 1
15 16 17 1
16 16 18 1
17 16 20 2
18 19 20 1
19 20 21 1
20 21 22 2
21 21 23 1
22 22 24 1
23 22 25 1
24 25 26 1
25 26 27 1
26 26 28 1
27 26 29 1
28 30 31 1
29 30 32 1
30 30 34 2
31 33 34 1
32 34 35 1
33 35 36 2
34 35 37 1
35 36 38 1
36 36 39 1
37 39 40 1
38 40 41 1
39 40 42 1
40 40 43 1
41 44 45 1
42 44 46 1
43 44 48 2
44 47 48 1
45 48 49 1
46 49 50 2
47 49 51 1
48 50 52 1
49 50 53 1
50 53 54 1
51 54 55 1
52 54 56 1
53 54 57 1
54 58 59 1
55 58 60 1
56 58 62 2
57 61 62 1
58 62 63 1
59 63 64 2
60 63 65 1
61 64 66 1
62 64 67 1
63 67 68 1
64 68 69 1
65 68 70 1
66 68 71 1
67 72 73 1
68 72 74 1
69 72 76 2
70 75 76 1
71 76 77 1
72 77 78 2
73 77 79 1
74 78 80 1
75 78 81 1
76 81 82 1
77 82 83 1
78 82 84 1
79 82 85 1
80 86 87 1
81 86 88 1
82 86 90 2
83 89 90 1
84 90 91 1
85 91 92 2
86 91 93 1
87 92 94 1
88 92 95 1
89 95 96 1
90 96 97 1
91 96 98 1
92 96 99 1
93 100 101 1
94 100 102 1
95 100 104 2
96 103 104 1
97 104 105 1
98 105 106 2
99 105 107 1
100 106 108 1
101 106 109 1
102 109 110 1
103 110 111 1
104 110 112 1
105 110 113 1
106 114 115 1
107 114 116 1
108 114 118 2
109 117 118 1
110 118 119 1
111 119 120 2
112 119 121 1
113 120 122 1
114 120 123 1
115 123 124 1
116 124 125 1
117 124 126 1
118 124 127 1
119 128 129 1
120 128 130 1
121 128 132 2
122 131 132 1
123 132 133 1
124 133 134 2
125 133 135 1
126 134 136 1
127 134 137 1
128 137 138 1
129 138 139 1
130 138 140 1
131 138 141 1
132 142 143 1
133 142 144 1
134 142 146 2
135 145 146 1
136 146 147 1
137 147 148 2
138 147 149 1
139 148 150 1
140 148 151 1
141 151 152 1
142 152 153 1
143 152 154 1
144 152 155 1
145 156 157 1
146 156 158 1
147 156 160 2
148 159 160 1
149 160 161 1
150 161 162 2
151 161 163 1
152 162 164 1
153 162 165 1
154 165 166 1
155 166 167 1
156 166 168 1
157 166 169 1
158 170 171 1
159 170 172 1
160 170 174 2
161 173 174 1
162 174 175 1
163 175 176 2
164 175 177 1
165 176 178 1
166 176 179 1
167 179 180 1
168 180 181 1
169 180 182 1
170 180 183 1
171 184 185 1
172 184 186 1
173 184 188 2
174 187 188 1
175 188 189 1
176 189 190 2
177 189 191 1
178 190 192 1
179 190 193 1
180 193 194 1
181 194 195 1
182 194 196 1
183 194 197 1
184 198 199 1
185 198 200 1
186 198 202 2
187 201 202 1
188 202 203 1
189 203 204 2
190 203 205 1
191 204 206 1
192 204 207 1
193 207 208 1
194 208 209 1
195 208 210 1
196 208 211 1
197 212 213 1
198 212 214 1
199 212 216 2
200 215 216 1
201 216 217 1
202 217 218 2
203 217 219 1
204 218 220 1
205 218 221 1
206 221 222 1
207 222 223 1
208 222 224 1
209 222 225 1
210 226 227 1
211 226 228 1
212 226 230 2
213 229 230 1
214 230 231 1
215 231 232 2
216 231 233 1
217 232 234 1
218 232 235 1
219 235 236 1
220 236 237 1
221 236 238 1
222 236 239 1
223 240 241 1
224 240 242 1
225 240 244 2
226 243 244 1
227 244 245 1
228 245 246 2
229 245 247 1
230 246 248 1
231 246 249 1
232 249 250 1
233 250 251 1
234 250 252 1
235 250 253 1
236 254 255 1
237 254 256 1
238 254 258 2
239 257 258 1
240 258 259 1
241 259 260 2
242 259 261 1
243 260 262 1
244 260 263 1
245 263 264 1
246 264 265 1
247 264 266 1
248 264 267 1
249 268 269 1
250 268 270 1
251 268 272 2
252 271 272 1
253 272 273 1
254 273 274 2
255 273 275 1
256 274 276 1
257 274 277 1
258 277 278 1
259 278 279 1
260 278 280 1
261 278 281 1
262 282 283 1
263 282 284 1
264 282 286 2
265 285 286 1
266 286 287 1
267 287 288 2
268 287 289 1
269 288 290 1
270 288 291 1
271 291 292 1
272 292 293 1
273 292 294 1
274 292 295 1
275 296 297 1
276 296 298 1
277 296 300 2
278 299 300 1
279 300 301 1
280 301 302 2
281 301 303 1
282 302 304 1
283 302 305 1
284 305 306 1
285 306 307 1
286 306 308 1
287 306 309 1
288 310 311 1
289 310 312 1
290 310 314 2
291 313 314 1
292 314 315 1
293 315 316 2
294 315 317 1
295 316 318 1
296 316 319 1
297 319 320 1
298 320 321 1
299 320 322 1
300 320 323 1
301 324 325 1
302 324 326 1
303 324 328 2
304 327 328 1
305 328 329 1
306 329 330 2
307 329 331 1
308 330 332 1
309 330 333 1
310 333 334 1
311 334 335 1
312 334 336 1
313 334 337 1
314 338 339 1
315 338 340 1
316 338 342 2
317 341 342 1
318 342 343 1
319 343 344 2
320 343 345 1
321 344 346 1
322 344 347 1
323 347 348 1
324 348 349 1
325 348 350 1
326 348 351 1
327 352 353 1
328 352 354 1
329 352 356 2
330 355 356 1
331 356 357 1
332 357 358 2
333 357 359 1
334 358 360 1
335 358 361 1
336 361 362 1
337 362 363 1
338 362 364 1
339 362 365 1
340 366 367 1
341 366 368 1
342 366 370 2
343 369 370 1
344 370 371 1
345 371 372 2
346 371 373 1
347 372 374 1
348 372 375 1
349 375 376 1
350 376 377 1
351 376 378 1
352 376 379 1
353 380 381 1
354 380 382 1
355 380 384 2
356 383 384 1
357 384 385 1
358 385 386 2
359 385 387 1
360 386 388 1
361 386 389 1
362 389 390 1
363 390 391 1
364 390 392 1
365 390 393 1
366 394 395 1
367 394 396 1
368 394 398 2
369 397 398 1
370 398 399 1
371 399 400 2
372 399 401 1
373 400 402 1
374 400 403 1
375 403 404 1
376 404 405 1
377 404 406 1
378 404 407 1
379 408 409 1
380 408 410 1
381 408 412 2
382 411 412 1
383 412 413 1
384 413 414 2
385 413 415 1
386 414 416 1
387 414 417 1
388 417 418 1
389 418 419 1
390 418 420 1
391 418 421 1
392 422 423 1
393 422 424 1
394 422 426 2
395 425 426 1
396 426 427 1
397 427 428 2
398 427 429 1
399 428 430 1
400 428 431 1
401 431 432 1
402 432 433 1
403 432 434 1
404 432 435 1
405 436 437 1
406 436 438 1
407 436 440 2
408 439 440 1
409 440 441 1
410 441 442 2
411 441 443 1
412 442 444 1
413 442 445 1
414 445 446 1
415 446 447 1
416 446 448 1
417 446 449 1
418 450 451 1
419 450 452 1
420 450 454 2
421 453 454 1
422 454 455 1
423 455 456 2
424 455 457 1
425 456 458 1
426 456 459 1
427 459 460 1
428 460 461 1
429 460 462 1
430 460 463 1
431 464 465 1
432 464 466 1
433 464 468 2
434 467 468 1
435 468 469 1
436 469 470 2
437 469 471 1
438 470 472 1
439 470 473 1
440 473 474 1
441 474 475 1
442 474 476 1
443 474 477 1
444 478 479 1
445 478 480 1
446 478 482 2
447 481 482 1
448 482 483 1
449 483 484 2
450 483 485 1
451 484 486 1
452 484 487 1
453 487 488 1
454 488 489 1
455 488 490 1
456 488 491 1
457 492 493 1
458 492 494 1
459 492 496 2
460 495 496 1
461 496 497 1
462 497 498 2
463 497 499 1
464 498 500 1
465 498 501 1
466 501 502 1
467 502 503 1
468 502 504 1
469 502 505 1
470 506 507 1
471 506 508 1
472 506 510 2
473 509 510 1
474 510 511 1
475 511 512 2
476 511 513 1
477 512 514 1
478 512 515 1
479 515 516 1
480 516 517 1
481 516 518 1
482 516 519 1
483 520 521 1
484 520 522 1
485 520 524 2
486 523 524 1
487 524 525 1
488 525 526 2
489 525 527 1
490 526 528 1
491 526 529 1
492 529 530 1
493 530 531 1
494 530 532 1
495 530 533 1
496 534 535 1
497 534 536 1
498 534 538 2
499 537 538 1
500 538 539 1
501 539 540 2
502 539 541 1
503 540 542 1
504 540 543 1
505 543 544 1
506 544 545 1
507 544 546 1
508 544 547 1
509 548 549 1
510 548 550 1
511 548 552 2
512 551 552 1
513 552 553 1
514 553 554 2
515 553 555 1
516 554 556 1
517 554 557 1
518 557 558 1
519 558 559 1
520 558 560 1
521 558 561 1
522 562 563 1
523 562 564 1
524 562 566 2
525 565 566 1
526 566 567 1
527 567 568 2
528 567 569 1
529 568 570 1
530 568 571 1
531 571 572 1
532 572 573 1
533 572 574 1
534 572 575 1
535 576 577 1
536 576 578 1
537 576 580 2
538 579 580 1
539 580 581 1
540 581 582 2
541 581 583 1
542 582 584 1
543 582 585 1
544 585 586 1
545 586 587 1
546 586 588 1
547 586 589 1
548 590 591 1
549 590 592 1
550 590 594 2
551 593 594 1
552 594 595 1
553 595 596 2
554 595 597 1
555 596 598 1
556 596 599 1
557 599 600 1
558 600 601 1
559 600 602 1
560 600 603 1
561 604 605 1
562 604 606 1
563 604 608 2
564 607 608 1
565 608 609 1
566 609 610 2
567 609 611 1
568 610 612 1
569 610 613 1
570 613 614 1
571 614 615 1
572 614 616 1
573 614 617 1
574 618 619 1
575 618 620 1
576 618 622 2
577 621 622 1
578 622 623 1
579 623 624 2
580 623 625 1
581 624 626 1
582 624 627 1
583 627 628 1
584 628 629 1
585 628 630 1
586 628 631 1
587 632 633 1
588 632 634 1
589 632 636 2
590 635 636 1
591 636 637 1
592 637 638 2
593 637 639 1
594 638 640 1
595 638 641 1
596 641 642 1
597 642 643 1
598 642 644 1
599 642 645 1
600 646 647 1
601 646 648 1
602 646 650 2
603 649 650 1
604 650 651 1
605 651 652 2
606 651 653 1
607 652 654 1
608 652 655 1
609 655 656 1
610 656 657 1
611 656 658 1
612 656 659 1
613 660 661 1
614 660 662 1
615 660 664 2
616 663 664 1
617 664 665 1
618 665 666 2
619 665 667 1
620 666 668 1
621 666 669 1
622 669 670 1
623 670 671 1
624 670 672 1
625 670 673 1
