@<TRIPOS>MOLECULE
Molecule Name
207 156
SMALL
NO_CHARGES

@<TRIPOS>ATOM
1 C1	0.0000	0.0000	0.0000 C
2 H2	-1.0823	0.0000	0.0000 H
3 C3	0.7402	1.1067	0.0000 C
4 H4	0.2807	2.0884	0.0000 H
5 H5	1.8236	1.0483	-0.0000 H
6 O6	0.5659	-1.2419	-0.0000 O
7 H7	-0.1492	-1.9023	-0.0000 H
8 C8	-0.4497	-2.7457	-3.2935 C
9 H9	0.4676	-2.1447	-3.1888 H
10 H10	-0.5929	-3.2266	-4.2743 H
11 O11	-1.2564	-2.8708	-2.3806 O
12 C12	-0.2520	-2.1700	-3.3694 C
13 H13	0.5788	-2.8931	-3.3454 H
14 H14	-0.1853	-1.3960	-4.1506 H
15 O15	-1.1872	-2.2230	-2.5805 O
16 C16	-0.2742	-1.2484	-3.2964 C
17 H17	-0.3136	-0.2595	-3.7803 H
18 H18	0.6371	-1.8361	-3.4908 H
19 O19	-1.1828	-1.6666	-2.5897 O
20 C20	0.6304	-3.4500	-2.3060 C
21 H21	1.4875	-4.1016	-2.0726 H
22 H22	0.8803	-2.4903	-2.7859 H
23 O23	-0.5232	-3.7710	-2.0492 O
24 C24	-0.0696	-3.6127	-3.2660 C
25 H25	-0.4160	-3.9397	-4.2594 H
26 H26	0.9713	-3.8736	-3.0165 H
27 O27	-0.7932	-3.0001	-2.4909 O
28 C28	2.1836	-1.7833	-2.2457 C
29 H29	2.0702	-0.6884	-2.2930 H
30 H30	3.0130	-2.1481	-1.6190 H
31 O31	1.4375	-2.5440	-2.8495 O
32 C32	1.7952	-4.6014	0.4636 C
33 H33	2.3618	-5.5238	0.6681 H
34 H34	2.1580	-3.9996	-0.3849 H
35 O35	0.8267	-4.2673	1.1346 O
36 C36	-0.8040	-0.4122	-3.4259 C
37 H37	-1.3782	-0.3465	-4.3639 H
38 H38	0.0523	0.2763	-3.3441 H
39 O39	-1.0979	-1.1980	-2.5338 O
40 C40	-2.0893	-4.0058	-1.8345 C
41 H41	-2.1085	-3.6603	-2.8804 H
42 H42	-1.7630	-5.0473	-1.6844 H
43 O43	-2.4093	-3.2806	-0.9010 O
44 C44	-4.3652	-0.7926	-1.4260 C
45 H45	-4.0027	-0.4324	-2.4020 H
46 H46	-5.4600	-0.8562	-1.3202 H
47 O47	-3.6022	-1.1017	-0.5193 O
48 C48	0.1706	-1.3809	-3.0464 C
49 H49	0.8819	-2.1174	-2.6400 H
50 H50	0.6221	-0.5273	-3.5768 H
51 O51	-1.0411	-1.5029	-2.9174 O
52 C52	-2.9483	-2.4491	-2.5516 C
53 H53	-3.3148	-3.3722	-2.0749 H
54 H54	-3.1334	-2.3683	-3.6347 H
55 O55	-2.3736	-1.5714	-1.9199 O
56 C56	1.6460	-1.2669	2.7434 C
57 H57	2.2725	-2.0493	2.2860 H
58 H58	1.9188	-0.2305	2.4880 H
59 O59	0.7090	-1.5316	3.4861 O
60 C60	-2.6035	-2.1306	-2.5027 C
61 H61	-2.1834	-1.5335	-3.3278 H
62 H62	-2.7854	-3.1931	-2.7302 H
63 O63	-2.8518	-1.6456	-1.4059 O
64 C64	2.8138	-3.1179	-0.9329 C
65 H65	2.9415	-2.7034	-1.9456 H
66 H66	3.6291	-2.9003	-0.2246 H
67 O67	1.8314	-3.7766	-0.6157 O
68 C68	-1.0123	-2.9177	-2.9086 C
69 H69	-1.0554	-3.2127	-3.9692 H
70 H70	-0.3440	-3.5219	-2.2745 H
71 O71	-1.6639	-1.9809	-2.4642 O
72 C72	-0.1579	-1.8597	-3.8841 C
73 H73	-0.7169	-1.3193	-4.6646 H
74 H74	0.8315	-2.2394	-4.1854 H
75 O75	-0.6062	-2.0272	-2.7569 O
76 C76	2.8692	-2.3875	-2.0379 C
77 H77	1.8911	-2.1322	-2.4759 H
78 H78	3.0601	-1.9797	-1.0324 H
79 O79	3.6894	-3.0785	-2.6291 O
80 C80	-0.3211	-3.3396	-2.8048 C
81 H81	0.7388	-3.2882	-3.1009 H
82 H82	-1.0233	-2.7971	-3.4578 H
83 O83	-0.6938	-3.9585	-1.8160 O
84 C84	0.6573	-1.2192	3.2558 C
85 H85	1.3089	-0.6886	3.9682 H
86 H86	1.1542	-1.9814	2.6347 H
87 O87	-0.5396	-0.9779	3.1607 O
88 C88	-3.7206	-0.8565	-1.7030 C
89 H89	-4.7932	-0.8754	-1.9537 H
90 H90	-3.2298	0.1259	-1.7907 H
91 O91	-3.1144	-1.8604	-1.3503 O
92 C92	-3.0375	-2.7643	-2.0141 C
93 H93	-3.7825	-2.7696	-2.8257 H
94 H94	-3.2943	-3.3692	-1.1299 H
95 O95	-1.9936	-2.1285	-2.0898 O
96 C96	3.3215	-1.9142	-1.3200 C
97 H97	3.1848	-2.5859	-0.4575 H
98 H98	3.5589	-0.8671	-1.0734 H
99 O99	3.2167	-2.3056	-2.4757 O
100 C100	-4.4928	-0.2119	0.5744 C
101 H101	-5.5369	0.0792	0.3772 H
102 H102	-4.1368	-0.0360	1.6020 H
103 O103	-3.7758	-0.6985	-0.2910 O
104 C104	1.4219	-1.0767	2.7960 C
105 H105	1.3534	0.0007	2.5764 H
106 H106	2.1991	-1.6260	2.2410 H
107 O107	0.6834	-1.6270	3.6032 O
108 C108	-1.0258	-2.1805	-3.6952 C
109 H109	-1.7811	-2.7910	-4.2154 H
110 H110	-0.0851	-2.0188	-4.2452 H
111 O111	-1.2191	-1.7128	-2.5799 O
112 C112	2.1573	-3.9911	-1.0832 C
113 H113	3.0554	-3.4500	-1.4213 H
114 H114	2.3085	-4.6794	-0.2363 H
115 O115	1.0640	-3.8378	-1.6132 O
116 C116	-1.1115	0.9097	3.1279 C
117 H117	-0.1958	0.3732	2.8321 H
118 H118	-1.0600	1.4412	4.0915 H
119 O119	-2.1192	0.9148	2.4320 O
120 C120	-4.2296	0.7282	-1.4679 C
121 H121	-5.2326	1.1073	-1.2153 H
122 H122	-3.7088	1.2651	-2.2768 H
123 O123	-3.7269	-0.2263	-0.8882 O
124 C124	3.2353	-3.2275	-0.7072 C
125 H125	4.2953	-3.0611	-0.9569 H
126 H126	2.8937	-2.7767	0.2383 H
127 O127	2.4866	-3.8707	-1.4322 O
128 C128	-4.4293	-1.5621	-1.5587 C
129 H129	-4.2893	-2.2840	-2.3791 H
130 H130	-5.4703	-1.4121	-1.2307 H
131 O131	-3.4905	-0.9661	-1.0457 O
132 C132	2.0397	-1.0770	2.9852 C
133 H133	2.7136	-0.9495	3.8474 H
134 H134	2.4608	-0.7934	2.0075 H
135 O135	0.8988	-1.5054	3.1056 O
136 C136	-4.6603	0.6832	-1.4473 C
137 H137	-5.0157	1.5359	-0.8470 H
138 H138	-5.3164	0.3824	-2.2797 H
139 O139	-3.6065	0.1082	-1.2054 O
140 C140	-0.9064	-0.9124	-3.7541 C
141 H141	0.0489	-0.5869	-4.1960 H
142 H142	-1.7860	-0.8320	-4.4126 H
143 O143	-0.9853	-1.3353	-2.6075 O
144 C144	1.1489	-1.3013	3.5671 C
145 H145	1.5626	-1.5958	2.5894 H
146 H146	1.3994	-0.2818	3.9011 H
147 O147	0.4567	-2.0569	4.2378 O
148 C148	2.8200	-4.0401	-1.4339 C
149 H149	2.2833	-3.2895	-0.8321 H
150 H150	3.8621	-3.7884	-1.6877 H
151 O151	2.2934	-5.0846	-1.7966 O
152 C152	-0.8025	-4.7477	-2.1486 C
153 H153	-1.4826	-5.4773	-1.6806 H
154 H154	0.0716	-5.1764	-2.6643 H
155 O155	-1.0048	-3.5409	-2.0990 O
156 C156	-4.5176	-1.6503	0.4390 C
157 H157	-5.5802	-1.6769	0.1496 H
158 H158	-4.1623	-2.5155	1.0213 H
159 O159	-3.7804	-0.7212	0.1338 O
160 C160	-1.5055	-0.7391	-3.1892 C
161 H161	-2.4967	-0.3026	-2.9873 H
162 H162	-0.8947	-0.2056	-3.9349 H
163 O163	-1.1092	-1.7498	-2.6225 O
164 C164	-1.7579	-3.1924	-3.2949 C
165 H165	-1.4999	-3.3447	-4.3551 H
166 H166	-2.6253	-3.7655	-2.9303 H
167 O167	-1.1229	-2.4365	-2.5702 O
168 C168	2.2685	-3.4215	1.2993 C
169 H169	1.9238	-3.6238	2.3259 H
170 H170	3.1163	-2.7234	1.2120 H
171 O171	1.7442	-3.9381	0.3205 O
172 C172	1.9019	-3.8548	-2.3038 C
173 H173	3.0028	-3.8700	-2.2649 H
174 H174	1.4639	-3.7277	-3.3067 H
175 O175	1.2111	-3.9714	-1.2993 O
176 C176	2.0798	-4.3630	0.1566 C
177 H177	1.7698	-4.7371	1.1453 H
178 H178	3.1566	-4.1600	0.0420 H
179 O179	1.2809	-4.1846	-0.7543 O
180 C180	2.0413	-2.3194	-3.0386 C
181 H181	1.7431	-1.5937	-3.8120 H
182 H182	2.3330	-1.8865	-2.0684 H
183 O183	2.0481	-3.5268	-3.2436 O
184 C184	2.9971	-2.9899	-2.3163 C
185 H185	3.1238	-2.1099	-2.9668 H
186 H186	2.2586	-2.8793	-1.5063 H
187 O187	3.6347	-4.0223	-2.4824 O
188 C188	2.8117	-3.6294	-0.1258 C
189 H189	1.7703	-3.9337	0.0657 H
190 H190	3.0398	-2.5692	0.0680 H
191 O191	3.6591	-4.4171	-0.5272 O
192 C192	2.8688	-3.5388	-2.1160 C
193 H193	3.5800	-4.1046	-1.4932 H
194 H194	2.0857	-2.9930	-1.5658 H
195 O195	2.9438	-3.5178	-3.3381 O
196 C196	-1.4388	1.9320	-2.6291 C
197 H197	-0.5544	1.2801	-2.5474 H
198 H198	-1.2369	2.9693	-2.9404 H
199 O199	-2.5707	1.5303	-2.3899 O
200 C200	3.7022	-1.8760	0.0675 C
201 H201	3.9640	-2.8982	-0.2493 H
202 H202	3.4851	-1.7524	1.1405 H
203 O203	3.6556	-0.9397	-0.7205 O
204 C204	0.2726	-0.2482	-3.2453 C
205 H205	0.6968	-1.1592	-2.7938 H
206 H206	0.9157	0.2608	-3.9809 H
207 O207	-0.8395	0.1706	-2.9494 O
@<TRIPOS>BOND
1 1 2 1
2 1 3 2
3 1 6 1
4 3 4 1
5 3 5 1
6 6 7 1
7 8 9 1
8 8 10 1
9 8 11 2
10 12 13 1
11 12 14 1
12 12 15 2
13 16 17 1
14 16 18 1
15 16 19 2
16 20 21 1
17 20 22 1
18 20 23 2
19 24 25 1
20 24 26 1
21 24 27 2
22 28 29 1
23 28 30 1
24 28 31 2
25 32 33 1
26 32 34 1
27 32 35 2
28 36 37 1
29 36 38 1
30 36 39 2
31 40 41 1
32 40 42 1
33 40 43 2
34 44 45 1
35 44 46 1
36 44 47 2
37 48 49 1
38 48 50 1
39 48 51 2
40 52 53 1
41 52 54 1
42 52 55 2
43 56 57 1
44 56 58 1
45 56 59 2
46 60 61 1
47 60 62 1
48 60 63 2
49 64 65 1
50 64 66 1
51 64 67 2
52 68 69 1
53 68 70 1
54 68 71 2
55 72 73 1
56 72 74 1
57 72 75 2
58 76 77 1
59 76 78 1
60 76 79 2
61 80 81 1
62 80 82 1
63 80 83 2
64 84 85 1
65 84 86 1
66 84 87 2
67 88 89 1
68 88 90 1
69 88 91 2
70 92 93 1
71 92 94 1
72 92 95 2
73 96 97 1
74 96 98 1
75 96 99 2
76 100 101 1
77 100 102 1
78 100 103 2
79 104 105 1
80 104 106 1
81 104 107 2
82 108 109 1
83 108 110 1
84 108 111 2
85 112 113 1
86 112 114 1
87 112 115 2
88 116 117 1
89 116 118 1
90 116 119 2
91 120 121 1
92 120 122 1
93 120 123 2
94 124 125 1
95 124 126 1
96 124 127 2
97 128 129 1
98 128 130 1
99 128 131 2
100 132 133 1
101 132 134 1
102 132 135 2
103 136 137 1
104 136 138 1
105 136 139 2
106 140 141 1
107 140 142 1
108 140 143 2
109 144 145 1
110 144 146 1
111 144 147 2
112 148 149 1
113 148 150 1
114 148 151 2
115 152 153 1
116 152 154 1
117 152 155 2
118 156 157 1
119 156 158 1
120 156 159 2
121 160 161 1
122 160 162 1
123 160 163 2
124 164 165 1
125 164 166 1
126 164 167 2
127 168 169 1
128 168 170 1
129 168 171 2
130 172 173 1
131 172 174 1
132 172 175 2
133 176 177 1
134 176 178 1
135 176 179 2
136 180 181 1
137 180 182 1
138 180 183 2
139 184 185 1
140 184 186 1
141 184 187 2
142 188 189 1
143 188 190 1
144 188 191 2
145 192 193 1
146 192 194 1
147 192 195 2
148 196 197 1
149 196 198 1
150 196 199 2
151 200 201 1
152 200 202 1
153 200 203 2
154 204 205 1
155 204 206 1
156 204 207 2
