@<TRIPOS>MOLECULE
Molecule Name
775 725
SMALL
NO_CHARGES

@<TRIPOS>ATOM
1 C1	0.0000	0.0000	0.0000 C
2 H2	-2.0873	0.0000	0.0000 H
3 C3	-1.1901	0.6157	0.0000 C
4 H4	0.9390	0.5417	0.0413 H
5 H5	0.0556	-1.0841	-0.0195 H
6 C6	-1.4117	2.0507	0.0554 C
7 C7	-0.5766	2.9601	-0.4815 C
8 H8	0.3012	2.6197	-1.0226 H
9 O9	-2.5466	2.4028	0.7636 O
10 C10	-3.6926	2.4870	-0.0839 C
11 H11	-4.5366	2.8220	0.5263 H
12 H12	-3.9446	1.5072	-0.5025 H
13 H13	-3.5464	3.2132	-0.8901 H
14 S14	-0.8128	4.6770	-0.3574 S
15 C15	0.7310	5.2257	-1.0592 C
16 C16	0.8043	5.5724	-2.4119 C
17 C17	2.0129	6.0046	-2.9620 C
18 H18	-0.0774	5.5097	-3.0449 H
19 C19	3.1509	6.0962	-2.1614 C
20 H20	2.0650	6.2729	-4.0140 H
21 C21	1.8737	5.3271	-0.2591 C
22 C22	3.0817	5.7592	-0.8102 C
23 H23	4.0909	6.4353	-2.5895 H
24 H24	3.9667	5.8364	-0.1839 H
25 H25	1.8297	5.0723	0.7972 H
26 C26	2.8424	6.8056	5.5217 C
27 C27	2.1959	6.1022	4.5835 C
28 H28	3.9172	6.9422	5.4721 H
29 H29	2.3146	7.2589	6.3570 H
30 H30	2.7210	5.6502	3.7511 H
31 C31	0.7307	5.9157	4.6510 C
32 O32	0.0040	6.3602	5.5233 O
33 O33	0.3583	5.1684	3.5823 O
34 C34	-1.0458	4.8903	3.4831 C
35 C35	-1.3908	3.6452	4.2785 C
36 H36	-1.2646	4.7222	2.4235 H
37 H37	-1.6465	5.7496	3.8031 H
38 H38	-0.7841	2.7964	3.9463 H
39 H39	-2.4480	3.3908	4.1615 H
40 H40	-1.1817	3.7887	5.3433 H
41 C41	-0.8302	2.7314	3.4303 C
42 C42	0.2821	2.9491	4.1432 C
43 H43	-1.6442	2.1409	3.8366 H
44 H44	-0.9520	3.1365	2.4289 H
45 H45	0.4043	2.5458	5.1409 H
46 C46	1.3921	3.7539	3.5896 C
47 O47	1.4039	4.2712	2.4855 O
48 O48	2.3749	3.8021	4.5229 O
49 C49	3.5398	4.5541	4.1539 C
50 C50	4.5147	3.6718	3.3968 C
51 H51	4.0035	4.9019	5.0828 H
52 H52	3.2725	5.4454	3.5745 H
53 H53	4.7727	2.7876	3.9888 H
54 H54	5.4318	4.2196	3.1623 H
55 H55	4.0741	3.3116	2.4618 H
56 C56	-5.9940	6.2363	-5.1287 C
57 C57	-5.3772	6.9627	-4.1881 C
58 H58	-6.4211	6.7102	-6.0059 H
59 H59	-6.0859	5.1565	-5.0440 H
60 H60	-5.2854	8.0386	-4.2718 H
61 C61	-4.7951	6.3171	-2.9921 C
62 O62	-4.8190	5.1211	-2.7560 O
63 O63	-4.2450	7.2890	-2.2226 O
64 C64	-3.6232	6.8384	-1.0106 C
65 C65	-4.6492	6.7520	0.1038 C
66 H66	-2.8582	7.5771	-0.7498 H
67 H67	-3.1093	5.8814	-1.1575 H
68 H68	-5.1522	7.7152	0.2389 H
69 H69	-4.1745	6.4662	1.0467 H
70 H70	-5.4257	6.0178	-0.1331 H
71 C71	-5.9048	6.9640	4.6080 C
72 C72	-4.5756	6.8042	4.6317 C
73 H73	-6.3943	7.6512	5.2896 H
74 H74	-6.5312	6.4143	3.9100 H
75 H75	-3.9509	7.3514	5.3268 H
76 C76	-3.9079	5.8675	3.7028 C
77 O77	-4.4730	5.1825	2.8671 O
78 O78	-2.5762	5.9118	3.9552 O
79 C79	-1.7639	5.0604	3.1344 C
80 C80	-1.6762	3.6737	3.7439 C
81 H81	-0.7660	5.5095	3.0970 H
82 H82	-2.1385	5.0229	2.1049 H
83 H83	-1.2995	3.7281	4.7705 H
84 H84	-1.0114	3.0335	3.1572 H
85 H85	-2.6630	3.2023	3.7913 H
86 C86	-0.1522	4.4651	3.2950 C
87 C87	-0.1384	3.1521	3.5572 C
88 H88	-0.7081	4.8575	2.4503 H
89 H89	0.3892	5.1746	3.9157 H
90 H90	-0.6774	2.4447	2.9393 H
91 C91	0.6194	2.6169	4.7085 C
92 O92	1.2738	3.2839	5.4918 O
93 O93	0.4544	1.2709	4.7238 O
94 C94	1.1230	0.5794	5.7885 C
95 C95	2.5464	0.2449	5.3834 C
96 H96	0.5651	-0.3453	5.9693 H
97 H97	1.0965	1.1582	6.7190 H
98 H98	2.5557	-0.3339	4.4540 H
99 H99	3.0462	-0.3341	6.1651 H
100 H100	3.1261	1.1547	5.1978 H
101 C101	-2.1377	5.2945	3.1333 C
102 C102	-1.8142	5.3309	4.4321 C
103 H103	-3.1449	5.5269	2.8046 H
104 H104	-1.4068	5.0327	2.3725 H
105 H105	-2.5419	5.5915	5.1908 H
106 C106	-0.4415	5.0139	4.8807 C
107 O107	0.4836	4.7030	4.1498 O
108 O108	-0.4098	5.1287	6.2316 O
109 C109	0.8593	4.8591	6.8442 C
110 C110	1.0023	3.3743	7.1217 C
111 H111	0.8832	5.4137	7.7880 H
112 H112	1.6865	5.2336	6.2301 H
113 H113	0.1701	3.0163	7.7367 H
114 H114	1.9412	3.1657	7.6422 H
115 H115	0.9825	2.7971	6.1919 H
116 C116	-1.5420	11.4248	-3.0092 C
117 C117	-2.2483	10.7571	-2.0883 C
118 H118	-1.5087	12.5089	-3.0058 H
119 H119	-0.9836	10.9056	-3.7840 H
120 H120	-2.8050	11.2736	-1.3161 H
121 C121	-2.2942	9.2792	-2.0927 C
122 O122	-1.7236	8.5598	-2.8949 O
123 O123	-3.0787	8.8857	-1.0588 O
124 C124	-3.2330	7.4673	-0.9065 C
125 C125	-4.3811	6.9701	-1.7647 C
126 H126	-3.4556	7.2814	0.1494 H
127 H127	-2.3015	6.9375	-1.1369 H
128 H128	-5.3036	7.5076	-1.5217 H
129 H129	-4.5451	5.8998	-1.6108 H
130 H130	-4.1817	7.1439	-2.8268 H
131 C131	-1.0595	4.8726	3.3315 C
132 C132	-1.5662	5.6861	4.2665 C
133 H133	-1.5374	4.7733	2.3628 H
134 H134	-0.1598	4.2898	3.5119 H
135 H135	-2.4626	6.2669	4.0876 H
136 C136	-0.9152	5.8215	5.5871 C
137 O137	0.0948	5.2350	5.9373 O
138 O138	-1.6428	6.7007	6.3198 O
139 C139	-1.1487	6.9595	7.6418 C
140 C140	-1.6956	5.9328	8.6158 C
141 H141	-1.4989	7.9578	7.9244 H
142 H142	-0.0530	6.9859	7.6603 H
143 H143	-2.7900	5.9198	8.5865 H
144 H144	-1.3724	6.1560	9.6365 H
145 H145	-1.3580	4.9248	8.3549 H
146 C146	-4.1580	6.2868	0.1845 C
147 C147	-4.8062	5.7592	1.2307 C
148 H148	-3.1013	6.0959	0.0315 H
149 H149	-4.6663	6.9186	-0.5394 H
150 H150	-4.3004	5.1297	1.9525 H
151 C151	-6.2465	6.0193	1.4398 C
152 O152	-6.9499	6.7055	0.7179 O
153 O153	-6.6266	5.3661	2.5659 O
154 C154	-8.0095	5.5044	2.9225 C
155 C155	-8.2117	6.7512	3.7630 C
156 H156	-8.2792	4.6188	3.5073 H
157 H157	-8.6519	5.5111	2.0343 H
158 H158	-7.5648	6.7287	4.6461 H
159 H159	-9.2522	6.8343	4.0895 H
160 H160	-7.9495	7.6520	3.1991 H
161 C161	-8.2674	5.0239	0.2165 C
162 C162	-7.1930	5.7703	0.5018 C
163 H163	-9.1600	5.4729	-0.2056 H
164 H164	-8.2795	3.9521	0.3976 H
165 H165	-7.1802	6.8382	0.3218 H
166 C166	-5.9761	5.1587	1.0774 C
167 O167	-5.8385	3.9753	1.3368 O
168 O168	-5.0637	6.1450	1.2615 O
169 C169	-3.8068	5.7276	1.8136 C
170 C170	-3.8766	5.7212	3.3292 C
171 H171	-3.0557	6.4524	1.4830 H
172 H172	-3.5040	4.7495	1.4221 H
173 H173	-4.1787	6.7046	3.7043 H
174 H174	-2.9060	5.4614	3.7610 H
175 H175	-4.6212	5.0022	3.6852 H
176 C176	-4.5004	6.4583	0.2354 C
177 C177	-4.0614	6.3373	-1.0238 C
178 H178	-3.8102	6.4168	1.0711 H
179 H179	-5.5546	6.6008	0.4588 H
180 H180	-3.0113	6.1952	-1.2471 H
181 C181	-5.0019	6.3936	-2.1632 C
182 O182	-6.2082	6.5467	-2.0732 O
183 O183	-4.2824	6.2414	-3.3027 O
184 C184	-5.0405	6.2758	-4.5203 C
185 C185	-5.5651	4.8909	-4.8502 C
186 H186	-4.3606	6.6096	-5.3111 H
187 H187	-5.8531	7.0094	-4.4640 H
188 H188	-4.7420	4.1708	-4.9042 H
189 H189	-6.0945	4.8945	-5.8071 H
190 H190	-6.2494	4.5348	-4.0736 H
191 C191	1.2033	1.1468	5.1602 C
192 C192	1.1481	2.2027	4.3387 C
193 H193	1.7893	0.2715	4.9017 H
194 H194	0.6667	1.1332	6.1054 H
195 H195	1.6823	2.2170	3.3967 H
196 C196	0.3492	3.3961	4.6906 C
197 O197	-0.3053	3.5292	5.7107 O
198 O198	0.4776	4.2932	3.6817 O
199 C199	-0.2342	5.5264	3.8583 C
200 C200	-1.6561	5.3884	3.3473 C
201 H201	0.2942	6.2872	3.2744 H
202 H202	-0.2141	5.8526	4.9046 H
203 H203	-1.6591	5.0637	2.3016 H
204 H204	-2.1896	6.3401	3.4231 H
205 H205	-2.2067	4.6329	3.9169 H
206 C206	-3.1730	7.6242	-0.3007 C
207 C207	-4.0913	7.1145	0.5298 C
208 H208	-2.3581	7.0119	-0.6716 H
209 H209	-3.2144	8.6602	-0.6274 H
210 H210	-4.0507	6.0826	0.8559 H
211 C211	-5.2022	7.9489	1.0358 C
212 O212	-5.3818	9.1233	0.7616 O
213 O213	-5.9643	7.1759	1.8488 O
214 C214	-7.1024	7.8276	2.4308 C
215 C215	-6.7058	8.5222	3.7200 C
216 H216	-7.8420	7.0491	2.6448 H
217 H217	-7.5662	8.5265	1.7251 H
218 H218	-6.2459	7.8111	4.4141 H
219 H219	-7.5781	8.9723	4.2022 H
220 H220	-5.9666	9.3073	3.5321 H
221 C221	-7.7079	6.2660	-1.0530 C
222 C222	-6.6014	5.8485	-0.4251 C
223 H223	-8.2519	5.6052	-1.7191 H
224 H224	-8.0934	7.2732	-0.9163 H
225 H225	-6.2166	4.8453	-0.5608 H
226 C226	-5.8594	6.7491	0.4829 C
227 O227	-6.1655	7.9020	0.7357 O
228 O228	-4.7940	6.0638	0.9672 O
229 C229	-3.9562	6.7892	1.8785 C
230 C230	-2.9072	7.5746	1.1138 C
231 H231	-3.4665	6.0497	2.5206 H
232 H232	-4.5477	7.4410	2.5319 H
233 H233	-2.3245	6.9099	0.4676 H
234 H234	-2.2265	8.0843	1.8015 H
235 H235	-3.3725	8.3227	0.4642 H
236 C236	-4.1903	6.3765	-0.6313 C
237 C237	-4.0936	7.3864	-1.5052 C
238 H238	-3.3065	5.9693	-0.1523 H
239 H239	-5.1506	5.9358	-0.3757 H
240 H240	-3.1373	7.8259	-1.7605 H
241 C241	-5.2982	7.9416	-2.1584 C
242 O242	-6.4398	7.5540	-1.9759 O
243 O243	-4.8989	8.9402	-2.9846 O
244 C244	-5.9486	9.6027	-3.7042 C
245 C245	-6.2464	8.8632	-4.9951 C
246 H246	-5.5920	10.6125	-3.9326 H
247 H247	-6.8484	9.7112	-3.0876 H
248 H248	-5.3389	8.7644	-5.5998 H
249 H249	-7.0041	9.3927	-5.5794 H
250 H250	-6.6064	7.8494	-4.7931 H
251 C251	-0.8824	0.4406	5.2387 C
252 C252	-1.3142	1.6993	5.0901 C
253 H253	-1.3836	-0.2428	5.9158 H
254 H254	-0.0222	0.0660	4.6897 H
255 H255	-2.1710	2.0732	5.6368 H
256 C256	-0.6312	2.6311	4.1675 C
257 O257	0.3432	2.3595	3.4866 O
258 O258	-1.2792	3.8210	4.2250 O
259 C259	-0.7500	4.8533	3.3807 C
260 C260	0.3600	5.5988	4.0976 C
261 H261	-1.5734	5.5411	3.1619 H
262 H262	-0.4064	4.4478	2.4220 H
263 H263	0.0009	5.9986	5.0517 H
264 H264	0.7302	6.4258	3.4852 H
265 H265	1.1971	4.9318	4.3268 H
266 C266	-3.4341	7.1208	0.7462 C
267 C267	-4.6419	7.2082	0.1748 C
268 H268	-2.5668	6.8186	0.1691 H
269 H269	-3.2852	7.3481	1.7987 H
270 H270	-4.7911	6.9818	-0.8737 H
271 C271	-5.8245	7.6199	0.9611 C
272 O272	-5.8170	7.9047	2.1467 O
273 O273	-6.8964	7.6162	0.1304 O
274 C274	-8.1426	7.9995	0.7296 C
275 C275	-8.8171	6.7922	1.3536 C
276 H276	-8.7728	8.3999	-0.0714 H
277 H277	-8.0030	8.8036	1.4613 H
278 H278	-8.9505	5.9994	0.6103 H
279 H279	-9.7953	7.0622	1.7614 H
280 H280	-8.2060	6.3737	2.1595 H
281 C281	-1.8009	9.9842	-2.0651 C
282 C282	-2.2329	9.5325	-0.8809 C
283 H283	-1.3781	10.9785	-2.1601 H
284 H284	-1.8596	9.3734	-2.9624 H
285 H285	-2.1749	10.1405	0.0134 H
286 C286	-2.8095	8.1772	-0.7510 C
287 O287	-2.9425	7.3786	-1.6627 O
288 O288	-3.1582	7.9977	0.5472 O
289 C289	-3.7357	6.7221	0.8603 C
290 C290	-5.2339	6.7528	0.6231 C
291 H291	-3.5348	6.5313	1.9196 H
292 H292	-3.2562	5.9166	0.2919 H
293 H293	-5.6977	7.5609	1.1982 H
294 H294	-5.6923	5.8037	0.9148 H
295 H295	-5.4610	6.9412	-0.4310 H
296 C296	-4.9060	10.2745	-2.4985 C
297 C297	-4.9746	9.1269	-1.8121 C
298 H298	-5.1989	10.3164	-3.5420 H
299 H299	-4.5572	11.1940	-2.0354 H
300 H300	-5.3218	8.2103	-2.2728 H
301 C301	-4.5752	9.0693	-0.3897 C
302 O302	-4.1642	10.0125	0.2647 O
303 O303	-4.7460	7.7936	0.0376 O
304 C304	-4.4087	7.5525	1.4112 C
305 C305	-2.9309	7.2339	1.5397 C
306 H306	-5.0005	6.6918	1.7396 H
307 H307	-4.6930	8.3994	2.0465 H
308 H308	-2.6635	6.3858	0.9009 H
309 H309	-2.6752	6.9907	2.5749 H
310 H310	-2.3169	8.0810	1.2180 H
311 C311	1.4005	10.2035	-0.9816 C
312 C312	0.3385	9.5075	-1.4068 C
313 H313	2.3362	10.1801	-1.5297 H
314 H314	1.3592	10.8097	-0.0802 H
315 H315	0.3789	8.9033	-2.3047 H
316 C316	-0.9371	9.5391	-0.6598 C
317 O317	-1.1372	10.1687	0.3650 O
318 O318	-1.8215	8.7476	-1.3161 O
319 C319	-3.1279	8.6634	-0.7289 C
320 C320	-3.1614	7.5673	0.3196 C
321 H321	-3.8266	8.4214	-1.5365 H
322 H322	-3.4407	9.6274	-0.3112 H
323 H323	-2.8481	6.6115	-0.1133 H
324 H324	-4.1683	7.4552	0.7315 H
325 H325	-2.4707	7.7870	1.1399 H
326 C326	0.0153	8.4893	5.9188 C
327 C327	-0.3667	7.8856	4.7862 C
328 H328	-0.0974	7.9948	6.8775 H
329 H329	0.4472	9.4868	5.9136 H
330 H330	-0.7972	6.8919	4.7905 H
331 C331	-0.2135	8.5595	3.4791 C
332 O332	0.2510	9.6745	3.3122 O
333 O333	-0.6819	7.7200	2.5225 O
334 C334	-0.6055	8.2135	1.1773 C
335 C335	-1.8414	9.0296	0.8478 C
336 H336	-0.5549	7.3403	0.5187 H
337 H337	0.3116	8.7918	1.0158 H
338 H338	-2.7479	8.4382	1.0127 H
339 H339	-1.8207	9.3611	-0.1942 H
340 H340	-1.9141	9.9106	1.4933 H
341 C341	-0.6148	11.0544	-3.7486 C
342 C342	-0.9809	10.0654	-2.9235 C
343 H343	-0.0101	11.8811	-3.3915 H
344 H344	-0.9097	11.0606	-4.7948 H
345 H345	-0.6875	10.0587	-1.8810 H
346 C346	-1.8053	8.9385	-3.4098 C
347 O347	-2.2131	8.8060	-4.5513 O
348 O348	-2.0199	8.1007	-2.3652 O
349 C349	-2.8060	6.9369	-2.6591 C
350 C350	-4.2829	7.2511	-2.5104 C
351 H351	-2.5193	6.1663	-1.9360 H
352 H352	-2.5783	6.5429	-3.6563 H
353 H353	-4.4940	7.6419	-1.5096 H
354 H354	-4.8884	6.3553	-2.6747 H
355 H355	-4.5949	8.0195	-3.2248 H
356 C356	-6.0423	9.1880	0.1544 C
357 C357	-4.7495	9.5339	0.1097 C
358 H358	-6.8183	9.9049	-0.0912 H
359 H359	-6.3531	8.1852	0.4363 H
360 H360	-4.4390	10.5328	-0.1708 H
361 C361	-3.6913	8.5571	0.4448 C
362 O362	-3.8818	7.4000	0.7787 O
363 O363	-2.4945	9.1820	0.3164 O
364 C364	-1.3432	8.3743	0.6006 C
365 C365	-1.0295	8.4130	2.0845 C
366 H366	-0.5067	8.8000	0.0366 H
367 H367	-1.4797	7.3460	0.2463 H
368 H368	-0.8947	9.4458	2.4222 H
369 H369	-0.1189	7.8482	2.3032 H
370 H370	-1.8517	7.9909	2.6710 H
371 C371	-2.2854	-0.6881	4.4372 C
372 C372	-1.3965	0.0515	3.7621 C
373 H373	-2.6833	-1.6036	4.0129 H
374 H374	-2.6340	-0.3970	5.4248 H
375 H375	-1.0488	-0.2378	2.7781 H
376 C376	-0.8540	1.2996	4.3402 C
377 O377	-1.1481	1.7555	5.4321 O
378 O378	0.0116	1.8308	3.4414 O
379 C379	0.6431	3.0552	3.8422 C
380 C380	-0.2285	4.2402	3.4707 C
381 H381	1.5947	3.1155	3.3040 H
382 H382	0.8788	3.0509	4.9127 H
383 H383	-0.4536	4.2310	2.3992 H
384 H384	0.2703	5.1814	3.7186 H
385 H385	-1.1871	4.2035	3.9978 H
386 C386	-2.4299	9.1301	-0.9886 C
387 C387	-2.1112	8.2511	-0.0302 C
388 H388	-2.6747	8.7953	-1.9908 H
389 H389	-2.4534	10.1994	-0.7944 H
390 H390	-2.0875	7.1856	-0.2229 H
391 C391	-1.7773	8.7070	1.3361 C
392 O392	-1.7591	9.8689	1.7056 O
393 O393	-1.4972	7.6099	2.0825 O
394 C394	-1.1535	7.8664	3.4517 C
395 C395	0.3337	8.1401	3.5761 C
396 H396	-1.4107	6.9666	4.0201 H
397 H397	-1.7484	8.6890	3.8652 H
398 H398	0.9136	7.3096	3.1603 H
399 H399	0.6163	8.2787	4.6234 H
400 H400	0.6162	9.0374	3.0163 H
401 C401	-2.2876	2.8487	3.6168 C
402 C402	-3.2972	2.4994	4.4241 C
403 H403	-2.4610	3.0504	2.5653 H
404 H404	-1.2695	2.9405	3.9866 H
405 H405	-4.3117	2.4076	4.0563 H
406 C406	-3.0612	2.2241	5.8575 C
407 O407	-1.9794	2.2839	6.4169 O
408 O408	-4.2516	1.8956	6.4180 O
409 C409	-4.2119	1.5986	7.8212 C
410 C410	-3.8813	0.1338	8.0375 C
411 H411	-5.2078	1.8141	8.2221 H
412 H412	-3.5053	2.2510	8.3474 H
413 H413	-4.5962	-0.5040	7.5074 H
414 H414	-3.9066	-0.1164	9.1019 H
415 H415	-2.8881	-0.1070	7.6455 H
416 C416	-1.4722	7.1415	7.9554 C
417 C417	-0.6511	6.3389	7.2666 C
418 H418	-1.4505	7.1605	9.0397 H
419 H419	-2.1815	7.7949	7.4538 H
420 H420	0.0557	5.6876	7.7656 H
421 C421	-0.6805	6.3126	5.7885 C
422 O422	-1.4182	6.9840	5.0872 O
423 O423	0.2470	5.4155	5.3713 O
424 C424	0.3611	5.2621	3.9492 C
425 C425	-0.6347	4.2310	3.4520 C
426 H426	1.3802	4.9175	3.7454 H
427 H427	0.2366	6.2211	3.4331 H
428 H428	-0.4966	3.2794	3.9756 H
429 H429	-0.5156	4.0635	2.3778 H
430 H430	-1.6630	4.5536	3.6435 H
431 C431	1.3475	-3.5135	-2.4243 C
432 C432	1.8803	-4.0284	-1.3091 C
433 H433	1.7571	-3.7553	-3.3991 H
434 H434	0.4937	-2.8415	-2.3888 H
435 H435	2.7310	-4.6978	-1.3436 H
436 C436	1.3224	-3.6987	0.0199 C
437 O437	0.3715	-2.9624	0.2211 O
438 O438	2.0571	-4.3545	0.9523 O
439 C439	1.6494	-4.1525	2.3131 C
440 C440	2.3171	-2.9145	2.8818 C
441 H441	1.9691	-5.0348	2.8771 H
442 H442	0.5581	-4.0943	2.3983 H
443 H443	3.4057	-2.9885	2.7906 H
444 H444	2.0592	-2.7846	3.9366 H
445 H445	2.0120	-2.0170	2.3344 H
446 C446	-6.8692	8.2307	-0.7250 C
447 C447	-5.8036	8.8727	-0.2298 C
448 H448	-7.8721	8.4848	-0.3993 H
449 H449	-6.7641	7.4403	-1.4638 H
450 H450	-5.9075	9.6602	0.5063 H
451 C451	-4.4363	8.5266	-0.6734 C
452 O452	-4.1584	7.6659	-1.4912 O
453 O453	-3.5689	9.3293	-0.0083 O
454 C454	-2.1825	9.1334	-0.3217 C
455 C455	-1.5977	8.0387	0.5510 C
456 H456	-1.6714	10.0798	-0.1166 H
457 H457	-2.0410	8.9157	-1.3866 H
458 H458	-1.7457	8.2716	1.6107 H
459 H459	-0.5270	7.9221	0.3614 H
460 H460	-2.0923	7.0804	0.3635 H
461 C461	-3.7725	7.2182	-0.1749 C
462 C462	-2.9873	7.3197	0.9049 C
463 H463	-3.4959	7.6931	-1.1101 H
464 H464	-4.7055	6.6609	-0.1491 H
465 H465	-2.0577	7.8748	0.8800 H
466 C466	-3.3641	6.6727	2.1798 C
467 O467	-4.3757	6.0175	2.3646 O
468 O468	-2.3925	6.9449	3.0860 O
469 C469	-2.5926	6.3856	4.3920 C
470 C470	-3.4313	7.3230	5.2405 C
471 H471	-1.6025	6.2668	4.8443 H
472 H472	-3.0417	5.3873	4.3342 H
473 H473	-2.9692	8.3144	5.2895 H
474 H474	-3.5402	6.9335	6.2566 H
475 H475	-4.4283	7.4574	4.8090 H
476 C476	-2.5293	6.3810	2.5478 C
477 C477	-1.4383	5.6906	2.9027 C
478 H478	-3.1958	6.0096	1.7769 H
479 H479	-2.7800	7.3288	3.0173 H
480 H480	-1.1878	4.7463	2.4353 H
481 C481	-0.5294	6.1967	3.9534 C
482 O482	-0.6756	7.2396	4.5679 O
483 O483	0.4782	5.3004	4.0968 O
484 C484	1.4612	5.6307	5.0885 C
485 C485	2.5386	6.5122	4.4850 C
486 H486	1.9038	4.6879	5.4265 H
487 H487	1.0014	6.1024	5.9646 H
488 H488	2.9886	6.0268	3.6128 H
489 H489	3.3237	6.7211	5.2171 H
490 H490	2.1205	7.4631	4.1399 H
491 C491	-5.5919	9.1355	-4.4759 C
492 C492	-5.6042	8.4319	-3.3367 C
493 H493	-6.2003	8.8344	-5.3218 H
494 H494	-4.9763	10.0243	-4.5886 H
495 H495	-6.2172	7.5462	-3.2237 H
496 C496	-4.7748	8.8419	-2.1834 C
497 O497	-4.0349	9.8107	-2.1576 O
498 O498	-4.9866	7.9512	-1.1829 O
499 C499	-4.2587	8.1993	0.0284 C
500 C500	-2.8862	7.5568	-0.0441 C
501 H501	-4.8331	7.7490	0.8447 H
502 H502	-4.1882	9.2728	0.2389 H
503 H503	-2.9738	6.4856	-0.2533 H
504 H504	-2.3456	7.6897	0.8972 H
505 H505	-2.2911	7.9917	-0.8533 H
506 C506	-6.8336	8.8302	0.3646 C
507 C507	-6.1251	8.4727	-0.7139 C
508 H508	-7.8740	9.1231	0.2741 H
509 H509	-6.3921	8.8382	1.3579 H
510 H510	-6.5642	8.4646	-1.7038 H
511 C511	-4.7067	8.0736	-0.5910 C
512 O512	-4.0746	8.0336	0.4509 O
513 O513	-4.2521	7.7709	-1.8323 O
514 C514	-2.8811	7.3537	-1.9026 C
515 C515	-1.9720	8.5614	-2.0325 C
516 H516	-2.7840	6.7227	-2.7922 H
517 H517	-2.6069	6.7366	-1.0391 H
518 H518	-2.2576	9.1661	-2.8995 H
519 H519	-0.9294	8.2515	-2.1462 H
520 H520	-2.0503	9.2085	-1.1532 H
521 C521	-4.6735	10.8147	2.3914 C
522 C522	-4.6814	9.4928	2.1781 C
523 H523	-5.2534	11.2512	3.1974 H
524 H524	-4.0900	11.4877	1.7683 H
525 H525	-5.2625	8.8217	2.7984 H
526 C526	-3.8911	8.8975	1.0793 C
527 O527	-3.1911	9.5197	0.2986 O
528 O528	-4.0927	7.5566	1.1030 O
529 C529	-3.3913	6.8094	0.0987 C
530 C530	-4.2080	6.7538	-1.1787 C
531 H531	-3.2533	5.7967	0.4916 H
532 H532	-2.3924	7.2232	-0.0818 H
533 H533	-5.2014	6.3372	-0.9821 H
534 H534	-3.7091	6.1368	-1.9314 H
535 H535	-4.3590	7.7558	-1.5925 H
536 C536	-2.5137	7.4020	4.3448 C
537 C537	-3.0817	7.3577	3.1331 C
538 H538	-3.0898	7.1824	5.2372 H
539 H539	-1.4648	7.6575	4.4721 H
540 H540	-4.1267	7.1034	3.0055 H
541 C541	-2.2967	7.6572	1.9164 C
542 O542	-1.1156	7.9594	1.8976 O
543 O543	-3.1247	7.5379	0.8490 O
544 C544	-2.5239	7.7906	-0.4292 C
545 C545	-2.5772	9.2728	-0.7493 C
546 H546	-3.1044	7.2329	-1.1714 H
547 H547	-1.4974	7.4083	-0.4703 H
548 H548	-3.6083	9.6387	-0.7055 H
549 H549	-2.1751	9.4687	-1.7472 H
550 H550	-2.0022	9.8530	-0.0207 H
551 C551	8.0790	8.0130	-0.9337 C
552 C552	8.2182	6.7625	-1.3917 C
553 H553	8.9132	8.5335	-0.4759 H
554 H554	7.1324	8.5427	-1.0054 H
555 H555	9.1608	6.2341	-1.3205 H
556 C556	7.0811	6.0527	-2.0157 C
557 O557	5.9617	6.5120	-2.1660 O
558 O558	7.5110	4.8183	-2.3773 O
559 C559	6.5298	3.9840	-3.0097 C
560 C560	5.7306	3.2299	-1.9635 C
561 H561	7.0733	3.2730	-3.6405 H
562 H562	5.8769	4.5662	-3.6702 H
563 H563	6.3963	2.6528	-1.3133 H
564 H564	5.0198	2.5466	-2.4367 H
565 H565	5.1763	3.9201	-1.3197 H
566 C566	-0.7018	5.6937	4.4567 C
567 C567	-1.2563	5.8079	3.2433 C
568 H568	0.0976	4.9834	4.6380 H
569 H569	-1.0325	6.3047	5.2927 H
570 H570	-0.9274	5.1994	2.4099 H
571 C571	-2.3462	6.7759	2.9959 C
572 O572	-2.8237	7.5264	3.8298 O
573 O573	-2.7081	6.6688	1.6933 O
574 C574	-3.7610	7.5473	1.2712 C
575 C575	-5.1125	6.9116	1.5384 C
576 H576	-3.6347	7.7041	0.1949 H
577 H577	-3.6780	8.5293	1.7512 H
578 H578	-5.1801	5.9331	1.0516 H
579 H579	-5.9206	7.5476	1.1665 H
580 H580	-5.2635	6.7454	2.6097 H
581 C581	0.7062	5.5166	7.9789 C
582 C582	-0.0958	6.2138	7.1643 C
583 H583	1.0491	5.9395	8.9170 H
584 H584	1.0370	4.5119	7.7280 H
585 H585	-0.4256	7.2148	7.4135 H
586 C586	-0.5632	5.6377	5.8854 C
587 O587	-0.2783	4.5283	5.4673 O
588 O588	-1.3492	6.5607	5.2776 O
589 C589	-1.9001	6.1655	4.0130 C
590 C590	-0.9260	6.4848	2.8945 C
591 H591	-2.8223	6.7389	3.8726 H
592 H592	-2.1775	5.1050	4.0125 H
593 H593	-0.6602	7.5469	2.9077 H
594 H594	-1.3605	6.2417	1.9207 H
595 H595	0.0053	5.9219	3.0119 H
596 C596	1.1666	3.3017	2.7494 C
597 C597	2.2721	2.6339	3.1028 C
598 H598	0.7676	4.0892	3.3796 H
599 H599	0.6376	3.0776	1.8266 H
600 H600	2.7997	2.8565	4.0221 H
601 C601	2.8163	1.5602	2.2442 C
602 O602	2.3361	1.1950	1.1846 O
603 O603	3.9253	1.0673	2.8494 O
604 C604	4.5934	0.0098	2.1466 C
605 C605	3.9850	-1.3303	2.5152 C
606 H606	5.6437	0.0343	2.4551 H
607 H607	4.5724	0.1751	1.0632 H
608 H608	4.0147	-1.4809	3.5994 H
609 H609	4.5254	-2.1481	2.0302 H
610 H610	2.9334	-1.3802	2.2155 H
611 C611	-2.1861	11.2438	2.7481 C
612 C612	-2.4696	9.9379	2.8322 C
613 H613	-2.1257	11.8581	3.6400 H
614 H614	-2.0089	11.7266	1.7904 H
615 H615	-2.6465	9.4562	3.7859 H
616 C616	-2.5523	9.1003	1.6166 C
617 O617	-2.3804	9.4960	0.4762 O
618 O618	-2.8535	7.8360	2.0039 O
619 C619	-2.9691	6.8767	0.9432 C
620 C620	-4.3810	6.8775	0.3878 C
621 H621	-2.7436	5.8954	1.3734 H
622 H622	-2.2286	7.0607	0.1562 H
623 H623	-5.1079	6.6911	1.1851 H
624 H624	-4.4956	6.1084	-0.3813 H
625 H625	-4.6305	7.8492	-0.0499 H
626 C626	2.5821	2.0506	4.9187 C
627 C627	1.4387	1.7206	4.3050 C
628 H628	3.4427	1.3913	4.8828 H
629 H629	2.6837	2.9828	5.4686 H
630 H630	1.3366	0.7920	3.7571 H
631 C631	0.2653	2.6189	4.3540 C
632 O632	0.2249	3.6931	4.9294 O
633 O633	-0.7369	2.0303	3.6551 O
634 C634	-1.9635	2.7720	3.5921 C
635 C635	-2.8284	2.4574	4.7983 C
636 H636	-2.4794	2.4601	2.6781 H
637 H637	-1.7750	3.8482	3.5037 H
638 H638	-3.0085	1.3798	4.8717 H
639 H639	-3.7908	2.9724	4.7303 H
640 H640	-2.3341	2.7616	5.7263 H
641 C641	-5.1856	5.7654	5.5237 C
642 C642	-3.9308	6.1018	5.1992 C
643 H643	-5.7622	6.3705	6.2150 H
644 H644	-5.6629	4.8817	5.1079 H
645 H645	-3.4545	6.9820	5.6131 H
646 C646	-3.1444	5.2771	4.2570 C
647 O647	-3.5402	4.2610	3.7115 O
648 O648	-1.9237	5.8524	4.1217 O
649 C649	-1.0209	5.1817	3.2308 C
650 C650	-0.2580	4.1009	3.9737 C
651 H651	-0.3204	5.9360	2.8576 H
652 H652	-1.5482	4.7741	2.3605 H
653 H653	0.2638	4.5239	4.8384 H
654 H654	0.4752	3.6232	3.3178 H
655 H655	-0.9375	3.3328	4.3563 H
656 C656	-1.6974	2.4080	8.9295 C
657 C657	-1.6214	3.2196	7.8673 C
658 H658	-1.2738	2.7007	9.8842 H
659 H659	-2.1824	1.4370	8.8696 H
660 H660	-1.1382	4.1871	7.9261 H
661 C661	-2.1984	2.8208	6.5657 C
662 O662	-2.7702	1.7672	6.3425 O
663 O663	-1.9715	3.8274	5.6857 O
664 C664	-2.4734	3.6119	4.3589 C
665 C665	-1.4501	2.8617	3.5271 C
666 H666	-2.6518	4.5992	3.9201 H
667 H667	-3.4367	3.0891	4.3766 H
668 H668	-0.4949	3.3970	3.5182 H
669 H669	-1.7986	2.7441	2.4971 H
670 H670	-1.2551	1.8692	3.9455 H
671 C671	-4.2196	10.3332	4.4393 C
672 C672	-3.9442	10.4003	3.1307 C
673 H673	-4.1799	11.2205	5.0619 H
674 H674	-4.4897	9.3944	4.9161 H
675 H675	-3.6749	11.3352	2.6549 H
676 C676	-3.9980	9.1909	2.2817 C
677 O677	-4.2829	8.0707	2.6698 O
678 O678	-3.6731	9.5574	1.0170 O
679 C679	-3.6796	8.4999	0.0473 C
680 C680	-2.3331	7.8010	0.0254 C
681 H681	-3.8707	8.9608	-0.9273 H
682 H682	-4.4956	7.7922	0.2339 H
683 H683	-1.5295	8.5204	-0.1633 H
684 H684	-2.3081	7.0317	-0.7516 H
685 H685	-2.1191	7.3302	0.9902 H
686 C686	4.0410	4.3451	3.2604 C
687 C687	4.7509	5.4293	3.5971 C
688 H688	3.9065	3.5288	3.9619 H
689 H689	3.5801	4.2489	2.2806 H
690 H690	5.2105	5.5258	4.5730 H
691 C691	4.9345	6.5421	2.6411 C
692 O692	4.4818	6.5799	1.5096 O
693 O693	5.6899	7.4905	3.2488 O
694 C694	5.9665	8.6573	2.4610 C
695 C695	7.2046	8.4353	1.6127 C
696 H696	6.1428	9.4811	3.1605 H
697 H697	5.1036	8.9371	1.8456 H
698 H698	8.0570	8.1582	2.2416 H
699 H699	7.4582	9.3397	1.0526 H
700 H700	7.0528	7.6159	0.9030 H
701 C701	-1.6445	8.1743	-1.5754 C
702 C702	-1.0403	9.3294	-1.8813 C
703 H703	-2.6616	7.9769	-1.8963 H
704 H704	-1.1389	7.4031	-0.9998 H
705 H705	-1.5435	10.0982	-2.4545 H
706 C706	0.3461	9.5988	-1.4438 C
707 O707	1.0399	8.8354	-0.7937 O
708 O708	0.6895	10.8324	-1.8906 O
709 C709	2.0179	11.2611	-1.5587 C
710 C710	2.0293	11.9221	-0.1931 C
711 H711	2.3197	11.9867	-2.3212 H
712 H712	2.7297	10.4289	-1.6072 H
713 H713	1.3149	12.7513	-0.1614 H
714 H714	3.0258	12.3052	0.0440 H
715 H715	1.7317	11.2153	0.5880 H
716 C716	-3.6730	6.1766	0.4517 C
717 C717	-4.8154	5.9083	-0.1933 C
718 H718	-3.5637	5.9494	1.5066 H
719 H719	-2.8250	6.6275	-0.0575 H
720 H720	-5.6607	5.4593	0.3134 H
721 C721	-4.9649	6.2181	-1.6312 C
722 O722	-4.1072	6.7235	-2.3352 O
723 O723	-6.2129	5.8445	-2.0083 O
724 C724	-6.5338	6.0694	-3.3886 C
725 C725	-7.0650	7.4776	-3.5802 C
726 H726	-7.3081	5.3441	-3.6592 H
727 H727	-5.6707	5.8749	-4.0358 H
728 H728	-7.9267	7.6555	-2.9286 H
729 H729	-7.3679	7.6398	-4.6185 H
730 H730	-6.3074	8.2225	-3.3168 H
731 C731	-2.9065	9.7487	-2.0272 C
732 C732	-3.5293	8.9632	-1.1396 C
733 H733	-3.3350	9.9286	-3.0073 H
734 H734	-1.9585	10.2277	-1.7958 H
735 H735	-4.4738	8.4855	-1.3695 H
736 C736	-2.9454	8.7175	0.1963 C
737 O737	-1.8926	9.1813	0.6004 O
738 O738	-3.7845	7.8922	0.8702 O
739 C739	-3.3742	7.5480	2.2013 C
740 C740	-2.4583	6.3387	2.1710 C
741 H741	-4.2823	7.3076	2.7639 H
742 H742	-2.8993	8.3979	2.7050 H
743 H743	-2.9472	5.4988	1.6665 H
744 H744	-2.1872	6.0321	3.1851 H
745 H745	-1.5410	6.5545	1.6141 H
746 C746	-1.0790	4.0661	3.0954 C
747 C747	-1.9425	3.3427	3.8194 C
748 H748	-1.4322	4.8076	2.3870 H
749 H749	-0.0045	3.9343	3.1937 H
750 H750	-3.0131	3.4733	3.7219 H
751 C751	-1.4614	2.3316	4.7850 C
752 O752	-0.2911	2.0696	5.0053 O
753 O753	-2.5473	1.7611	5.3634 O
754 C754	-2.2655	0.7498	6.3415 C
755 C755	-2.1071	-0.6006	5.6682 C
756 H756	-3.1189	0.7212	7.0270 H
757 H757	-1.3824	1.0064	6.9379 H
758 H758	-2.9971	-0.8428	5.0781 H
759 H759	-1.9507	-1.3882	6.4106 H
760 H760	-1.2581	-0.5980	4.9773 H
761 C761	-1.6968	4.5373	6.8703 C
762 C762	-1.7177	3.3162	6.3212 C
763 H763	-1.2501	4.7008	7.8451 H
764 H764	-2.1236	5.3973	6.3605 H
765 H765	-1.2929	2.4589	6.8285 H
766 C766	-2.3267	3.0928	4.9926 C
767 O767	-2.8443	3.9540	4.3017 O
768 O768	-2.2058	1.7746	4.6974 O
769 C769	-2.7436	1.3746	3.4288 C
770 C770	-4.2196	1.0503	3.5642 C
771 H771	-2.1971	0.4781	3.1180 H
772 H772	-2.5698	2.1390	2.6626 H
773 H773	-4.3763	0.2850	4.3315 H
774 H774	-4.6256	0.6876	2.6157 H
775 H775	-4.7889	1.9325	3.8735 H
@<TRIPOS>BOND
1 1 3 2
2 1 4 1
3 1 5 1
4 2 3 1
5 3 6 1
6 6 7 2
7 6 9 1
8 7 8 1
9 7 14 1
10 9 10 1
11 10 11 1
12 10 12 1
13 10 13 1
14 14 15 1
15 15 16 2
16 15 21 2
17 16 17 2
18 16 18 1
19 17 19 2
20 17 20 1
21 19 22 2
22 19 23 1
23 21 22 2
24 21 25 1
25 22 24 1
26 26 27 2
27 26 28 1
28 26 29 1
29 27 30 1
30 27 31 1
31 31 32 2
32 31 33 1
33 33 34 1
34 34 35 1
35 34 36 1
36 34 37 1
37 35 38 1
38 35 39 1
39 35 40 1
40 41 42 2
41 41 43 1
42 41 44 1
43 42 45 1
44 42 46 1
45 46 47 2
46 46 48 1
47 48 49 1
48 49 50 1
49 49 51 1
50 49 52 1
51 50 53 1
52 50 54 1
53 50 55 1
54 56 57 2
55 56 58 1
56 56 59 1
57 57 60 1
58 57 61 1
59 61 62 2
60 61 63 1
61 63 64 1
62 64 65 1
63 64 66 1
64 64 67 1
65 65 68 1
66 65 69 1
67 65 70 1
68 71 72 2
69 71 73 1
70 71 74 1
71 72 75 1
72 72 76 1
73 76 77 2
74 76 78 1
75 78 79 1
76 79 80 1
77 79 81 1
78 79 82 1
79 80 83 1
80 80 84 1
81 80 85 1
82 86 87 2
83 86 88 1
84 86 89 1
85 87 90 1
86 87 91 1
87 91 92 2
88 91 93 1
89 93 94 1
90 94 95 1
91 94 96 1
92 94 97 1
93 95 98 1
94 95 99 1
95 95 100 1
96 101 102 2
97 101 103 1
98 101 104 1
99 102 105 1
100 102 106 1
101 106 107 2
102 106 108 1
103 108 109 1
104 109 110 1
105 109 111 1
106 109 112 1
107 110 113 1
108 110 114 1
109 110 115 1
110 116 117 2
111 116 118 1
112 116 119 1
113 117 120 1
114 117 121 1
115 121 122 2
116 121 123 1
117 123 124 1
118 124 125 1
119 124 126 1
120 124 127 1
121 125 128 1
122 125 129 1
123 125 130 1
124 131 132 2
125 131 133 1
126 131 134 1
127 132 135 1
128 132 136 1
129 136 137 2
130 136 138 1
131 138 139 1
132 139 140 1
133 139 141 1
134 139 142 1
135 140 143 1
136 140 144 1
137 140 145 1
138 146 147 2
139 146 148 1
140 146 149 1
141 147 150 1
142 147 151 1
143 151 152 2
144 151 153 1
145 153 154 1
146 154 155 1
147 154 156 1
148 154 157 1
149 155 158 1
150 155 159 1
151 155 160 1
152 161 162 2
153 161 163 1
154 161 164 1
155 162 165 1
156 162 166 1
157 166 167 2
158 166 168 1
159 168 169 1
160 169 170 1
161 169 171 1
162 169 172 1
163 170 173 1
164 170 174 1
165 170 175 1
166 176 177 2
167 176 178 1
168 176 179 1
169 177 180 1
170 177 181 1
171 181 182 2
172 181 183 1
173 183 184 1
174 184 185 1
175 184 186 1
176 184 187 1
177 185 188 1
178 185 189 1
179 185 190 1
180 191 192 2
181 191 193 1
182 191 194 1
183 192 195 1
184 192 196 1
185 196 197 2
186 196 198 1
187 198 199 1
188 199 200 1
189 199 201 1
190 199 202 1
191 200 203 1
192 200 204 1
193 200 205 1
194 206 207 2
195 206 208 1
196 206 209 1
197 207 210 1
198 207 211 1
199 211 212 2
200 211 213 1
201 213 214 1
202 214 215 1
203 214 216 1
204 214 217 1
205 215 218 1
206 215 219 1
207 215 220 1
208 221 222 2
209 221 223 1
210 221 224 1
211 222 225 1
212 222 226 1
213 226 227 2
214 226 228 1
215 228 229 1
216 229 230 1
217 229 231 1
218 229 232 1
219 230 233 1
220 230 234 1
221 230 235 1
222 236 237 2
223 236 238 1
224 236 239 1
225 237 240 1
226 237 241 1
227 241 242 2
228 241 243 1
229 243 244 1
230 244 245 1
231 244 246 1
232 244 247 1
233 245 248 1
234 245 249 1
235 245 250 1
236 251 252 2
237 251 253 1
238 251 254 1
239 252 255 1
240 252 256 1
241 256 257 2
242 256 258 1
243 258 259 1
244 259 260 1
245 259 261 1
246 259 262 1
247 260 263 1
248 260 264 1
249 260 265 1
250 266 267 2
251 266 268 1
252 266 269 1
253 267 270 1
254 267 271 1
255 271 272 2
256 271 273 1
257 273 274 1
258 274 275 1
259 274 276 1
260 274 277 1
261 275 278 1
262 275 279 1
263 275 280 1
264 281 282 2
265 281 283 1
266 281 284 1
267 282 285 1
268 282 286 1
269 286 287 2
270 286 288 1
271 288 289 1
272 289 290 1
273 289 291 1
274 289 292 1
275 290 293 1
276 290 294 1
277 290 295 1
278 296 297 2
279 296 298 1
280 296 299 1
281 297 300 1
282 297 301 1
283 301 302 2
284 301 303 1
285 303 304 1
286 304 305 1
287 304 306 1
288 304 307 1
289 305 308 1
290 305 309 1
291 305 310 1
292 311 312 2
293 311 313 1
294 311 314 1
295 312 315 1
296 312 316 1
297 316 317 2
298 316 318 1
299 318 319 1
300 319 320 1
301 319 321 1
302 319 322 1
303 320 323 1
304 320 324 1
305 320 325 1
306 326 327 2
307 326 328 1
308 326 329 1
309 327 330 1
310 327 331 1
311 331 332 2
312 331 333 1
313 333 334 1
314 334 335 1
315 334 336 1
316 334 337 1
317 335 338 1
318 335 339 1
319 335 340 1
320 341 342 2
321 341 343 1
322 341 344 1
323 342 345 1
324 342 346 1
325 346 347 2
326 346 348 1
327 348 349 1
328 349 350 1
329 349 351 1
330 349 352 1
331 350 353 1
332 350 354 1
333 350 355 1
334 356 357 2
335 356 358 1
336 356 359 1
337 357 360 1
338 357 361 1
339 361 362 2
340 361 363 1
341 363 364 1
342 364 365 1
343 364 366 1
344 364 367 1
345 365 368 1
346 365 369 1
347 365 370 1
348 371 372 2
349 371 373 1
350 371 374 1
351 372 375 1
352 372 376 1
353 376 377 2
354 376 378 1
355 378 379 1
356 379 380 1
357 379 381 1
358 379 382 1
359 380 383 1
360 380 384 1
361 380 385 1
362 386 387 2
363 386 388 1
364 386 389 1
365 387 390 1
366 387 391 1
367 391 392 2
368 391 393 1
369 393 394 1
370 394 395 1
371 394 396 1
372 394 397 1
373 395 398 1
374 395 399 1
375 395 400 1
376 401 402 2
377 401 403 1
378 401 404 1
379 402 405 1
380 402 406 1
381 406 407 2
382 406 408 1
383 408 409 1
384 409 410 1
385 409 411 1
386 409 412 1
387 410 413 1
388 410 414 1
389 410 415 1
390 416 417 2
391 416 418 1
392 416 419 1
393 417 420 1
394 417 421 1
395 421 422 2
396 421 423 1
397 423 424 1
398 424 425 1
399 424 426 1
400 424 427 1
401 425 428 1
402 425 429 1
403 425 430 1
404 431 432 2
405 431 433 1
406 431 434 1
407 432 435 1
408 432 436 1
409 436 437 2
410 436 438 1
411 438 439 1
412 439 440 1
413 439 441 1
414 439 442 1
415 440 443 1
416 440 444 1
417 440 445 1
418 446 447 2
419 446 448 1
420 446 449 1
421 447 450 1
422 447 451 1
423 451 452 2
424 451 453 1
425 453 454 1
426 454 455 1
427 454 456 1
428 454 457 1
429 455 458 1
430 455 459 1
431 455 460 1
432 461 462 2
433 461 463 1
434 461 464 1
435 462 465 1
436 462 466 1
437 466 467 2
438 466 468 1
439 468 469 1
440 469 470 1
441 469 471 1
442 469 472 1
443 470 473 1
444 470 474 1
445 470 475 1
446 476 477 2
447 476 478 1
448 476 479 1
449 477 480 1
450 477 481 1
451 481 482 2
452 481 483 1
453 483 484 1
454 484 485 1
455 484 486 1
456 484 487 1
457 485 488 1
458 485 489 1
459 485 490 1
460 491 492 2
461 491 493 1
462 491 494 1
463 492 495 1
464 492 496 1
465 496 497 2
466 496 498 1
467 498 499 1
468 499 500 1
469 499 501 1
470 499 502 1
471 500 503 1
472 500 504 1
473 500 505 1
474 506 507 2
475 506 508 1
476 506 509 1
477 507 510 1
478 507 511 1
479 511 512 2
480 511 513 1
481 513 514 1
482 514 515 1
483 514 516 1
484 514 517 1
485 515 518 1
486 515 519 1
487 515 520 1
488 521 522 2
489 521 523 1
490 521 524 1
491 522 525 1
492 522 526 1
493 526 527 2
494 526 528 1
495 528 529 1
496 529 530 1
497 529 531 1
498 529 532 1
499 530 533 1
500 530 534 1
501 530 535 1
502 536 537 2
503 536 538 1
504 536 539 1
505 537 540 1
506 537 541 1
507 541 542 2
508 541 543 1
509 543 544 1
510 544 545 1
511 544 546 1
512 544 547 1
513 545 548 1
514 545 549 1
515 545 550 1
516 551 552 2
517 551 553 1
518 551 554 1
519 552 555 1
520 552 556 1
521 556 557 2
522 556 558 1
523 558 559 1
524 559 560 1
525 559 561 1
526 559 562 1
527 560 563 1
528 560 564 1
529 560 565 1
530 566 567 2
531 566 568 1
532 566 569 1
533 567 570 1
534 567 571 1
535 571 572 2
536 571 573 1
537 573 574 1
538 574 575 1
539 574 576 1
540 574 577 1
541 575 578 1
542 575 579 1
543 575 580 1
544 581 582 2
545 581 583 1
546 581 584 1
547 582 585 1
548 582 586 1
549 586 587 2
550 586 588 1
551 588 589 1
552 589 590 1
553 589 591 1
554 589 592 1
555 590 593 1
556 590 594 1
557 590 595 1
558 596 597 2
559 596 598 1
560 596 599 1
561 597 600 1
562 597 601 1
563 601 602 2
564 601 603 1
565 603 604 1
566 604 605 1
567 604 606 1
568 604 607 1
569 605 608 1
570 605 609 1
571 605 610 1
572 611 612 2
573 611 613 1
574 611 614 1
575 612 615 1
576 612 616 1
577 616 617 2
578 616 618 1
579 618 619 1
580 619 620 1
581 619 621 1
582 619 622 1
583 620 623 1
584 620 624 1
585 620 625 1
586 626 627 2
587 626 628 1
588 626 629 1
589 627 630 1
590 627 631 1
591 631 632 2
592 631 633 1
593 633 634 1
594 634 635 1
595 634 636 1
596 634 637 1
597 635 638 1
598 635 639 1
599 635 640 1
600 641 642 2
601 641 643 1
602 641 644 1
603 642 645 1
604 642 646 1
605 646 647 2
606 646 648 1
607 648 649 1
608 649 650 1
609 649 651 1
610 649 652 1
611 650 653 1
612 650 654 1
613 650 655 1
614 656 657 2
615 656 658 1
616 656 659 1
617 657 660 1
618 657 661 1
619 661 662 2
620 661 663 1
621 663 664 1
622 664 665 1
623 664 666 1
624 664 667 1
625 665 668 1
626 665 669 1
627 665 670 1
628 671 672 2
629 671 673 1
630 671 674 1
631 672 675 1
632 672 676 1
633 676 677 2
634 676 678 1
635 678 679 1
636 679 680 1
637 679 681 1
638 679 682 1
639 680 683 1
640 680 684 1
641 680 685 1
642 686 687 2
643 686 688 1
644 686 689 1
645 687 690 1
646 687 691 1
647 691 692 2
648 691 693 1
649 693 694 1
650 694 695 1
651 694 696 1
652 694 697 1
653 695 698 1
654 695 699 1
655 695 700 1
656 701 702 2
657 701 703 1
658 701 704 1
659 702 705 1
660 702 706 1
661 706 707 2
662 706 708 1
663 708 709 1
664 709 710 1
665 709 711 1
666 709 712 1
667 710 713 1
668 710 714 1
669 710 715 1
670 716 717 2
671 716 718 1
672 716 719 1
673 717 720 1
674 717 721 1
675 721 722 2
676 721 723 1
677 723 724 1
678 724 725 1
679 724 726 1
680 724 727 1
681 725 728 1
682 725 729 1
683 725 730 1
684 731 732 2
685 731 733 1
686 731 734 1
687 732 735 1
688 732 736 1
689 736 737 2
690 736 738 1
691 738 739 1
692 739 740 1
693 739 741 1
694 739 742 1
695 740 743 1
696 740 744 1
697 740 745 1
698 746 747 2
699 746 748 1
700 746 749 1
701 747 750 1
702 747 751 1
703 751 752 2
704 751 753 1
705 753 754 1
706 754 755 1
707 754 756 1
708 754 757 1
709 755 758 1
710 755 759 1
711 755 760 1
712 761 762 2
713 761 763 1
714 761 764 1
715 762 765 1
716 762 766 1
717 766 767 2
718 766 768 1
719 768 769 1
720 769 770 1
721 769 771 1
722 769 772 1
723 770 773 1
724 770 774 1
725 770 775 1
