@<TRIPOS>MOLECULE
Molecule Name
339 294
SMALL
NO_CHARGES

@<TRIPOS>ATOM
1 C1	0.0000	0.0000	0.0000 C
2 O2	-1.2307	0.0000	0.0000 O
3 O3	0.7406	1.1694	0.0000 O
4 H4	0.1452	1.9503	-0.0180 H
5 N5	0.2909	-2.4542	0.3689 N
6 C6	-1.0495	-3.7549	1.9028 C
7 H7	-1.3992	-4.4403	1.1412 H
8 H8	-1.3921	-3.9368	2.9134 H
9 C9	-0.2461	-2.6991	1.6382 C
10 C10	0.1637	-1.7363	2.7320 C
11 H11	-0.2344	-0.7287	2.5613 H
12 H12	-0.2230	-2.0813	3.6932 H
13 H13	1.2551	-1.6555	2.8153 H
14 C14	1.2878	-2.9970	-1.6915 C
15 C15	0.1574	-3.4117	-0.7359 C
16 C16	0.9264	-1.2058	-0.0459 C
17 C17	1.3529	-1.4636	-1.5322 C
18 H18	2.2306	-3.4555	-1.3719 H
19 H19	1.0986	-3.2967	-2.7267 H
20 H20	0.2807	-4.4311	-0.3553 H
21 H21	-0.8312	-3.3484	-1.2182 H
22 H22	1.8025	-0.9674	0.5690 H
23 H23	0.6376	-0.9866	-2.2121 H
24 H24	2.3396	-1.0435	-1.7397 H
25 C25	-2.8425	3.9517	-0.8811 C
26 H26	-3.1406	3.8591	0.1806 H
27 O27	-1.6853	3.6866	-1.2252 O
28 C28	-3.9250	4.4081	-1.8186 C
29 H29	-4.3066	5.3892	-1.5058 H
30 H30	-3.5444	4.4709	-2.8403 H
31 H31	-4.7736	3.7120	-1.7830 H
32 C32	-2.7260	3.7322	0.6964 C
33 H33	-2.3029	3.4300	1.6733 H
34 O34	-2.0288	3.6819	-0.3231 O
35 C35	-4.1582	4.1871	0.7255 C
36 H36	-4.2681	5.0453	1.4020 H
37 H37	-4.4916	4.4647	-0.2767 H
38 H38	-4.8001	3.3884	1.1201 H
39 C39	-2.9602	2.7259	0.5901 C
40 H40	-2.8446	2.2490	-0.4018 H
41 O41	-2.3920	3.7964	0.8330 O
42 C42	-3.8308	1.9847	1.5658 C
43 H43	-3.4304	0.9769	1.7391 H
44 H44	-3.8886	2.5247	2.5133 H
45 H45	-4.8396	1.8580	1.1510 H
46 C46	-1.9205	5.0545	-0.4886 C
47 H47	-2.3265	4.8794	0.5258 H
48 O48	-1.1047	4.2632	-0.9748 O
49 C49	-2.4299	6.2854	-1.1848 C
50 H50	-2.2003	7.1786	-0.5886 H
51 H51	-1.9788	6.3789	-2.1749 H
52 H52	-3.5229	6.2403	-1.2799 H
53 C53	-0.8437	4.8948	1.5556 C
54 H54	-1.0383	4.0668	2.2635 H
55 O55	-0.2577	4.6740	0.4898 O
56 C56	-1.3352	6.2466	1.9915 C
57 H57	-0.8726	6.5263	2.9474 H
58 H58	-1.1019	7.0000	1.2363 H
59 H59	-2.4198	6.2174	2.1610 H
60 C60	-1.8390	3.8632	1.9745 C
61 H61	-2.6247	3.1679	1.6228 H
62 O62	-0.9402	4.2226	1.2057 O
63 C63	-1.9623	4.3073	3.4051 C
64 H64	-1.9426	3.4364	4.0738 H
65 H65	-1.1493	4.9884	3.6654 H
66 H66	-2.9273	4.8067	3.5636 H
67 C67	-2.1466	4.3498	-1.4638 C
68 H68	-1.5020	4.3190	-2.3628 H
69 O69	-1.6856	4.0389	-0.3598 O
70 C70	-3.5659	4.7840	-1.7009 C
71 H71	-4.0512	4.1115	-2.4208 H
72 H72	-4.1268	4.7853	-0.7639 H
73 H73	-3.5844	5.7887	-2.1436 H
74 C74	-0.3903	5.4947	-0.6892 C
75 H75	0.2064	5.3295	-1.6064 H
76 O76	-0.3153	4.6960	0.2512 O
77 C77	-1.2580	6.7220	-0.6953 C
78 H78	-1.9648	6.6805	-1.5348 H
79 H79	-1.8084	6.8057	0.2442 H
80 H80	-0.6422	7.6190	-0.8435 H
81 C81	-1.2127	5.1291	-1.9501 C
82 H82	-1.9201	5.5816	-1.2294 H
83 O83	-0.5869	4.1074	-1.6458 O
84 C84	-1.0911	5.8395	-3.2690 C
85 H85	-0.7678	6.8770	-3.1106 H
86 H86	-0.3754	5.3265	-3.9150 H
87 H87	-2.0697	5.8848	-3.7651 H
88 C88	0.5874	5.2134	1.5094 C
89 H89	-0.1027	4.7714	2.2530 H
90 O90	0.8087	4.6270	0.4439 O
91 C91	1.2001	6.5295	1.8988 C
92 H92	1.7637	6.4212	2.8351 H
93 H93	1.8638	6.8903	1.1103 H
94 H94	0.4128	7.2715	2.0869 H
95 C95	0.7510	4.7954	-1.7381 C
96 H96	0.7237	3.9952	-2.5019 H
97 O97	0.1176	4.6681	-0.6843 O
98 C98	1.5900	5.9928	-2.0865 C
99 H99	1.2278	6.4498	-3.0171 H
100 H100	1.5596	6.7286	-1.2801 H
101 H101	2.6288	5.6863	-2.2675 H
102 C102	-0.3205	5.4274	1.1710 C
103 H103	0.3665	5.8548	0.4161 H
104 O104	-0.8979	4.3574	0.9481 O
105 C105	-0.4772	6.2317	2.4310 C
106 H106	-0.8478	7.2378	2.1930 H
107 H107	-1.1696	5.7380	3.1161 H
108 H108	0.4974	6.3606	2.9203 H
109 C109	0.3162	4.3701	-3.1712 C
110 H110	0.0578	5.4371	-3.3098 H
111 O111	0.0259	3.7940	-2.1167 O
112 C112	1.0190	3.7197	-4.3297 C
113 H113	1.9549	4.2505	-4.5497 H
114 H114	1.2345	2.6725	-4.1071 H
115 H115	0.3979	3.7848	-5.2329 H
116 C116	1.1929	4.9261	1.0770 C
117 H117	1.8228	4.9096	0.1673 H
118 O118	0.0186	4.5438	1.0247 O
119 C119	1.8677	5.4326	2.3209 C
120 H120	2.2304	6.4571	2.1632 H
121 H121	1.1759	5.4140	3.1657 H
122 H122	2.7474	4.8168	2.5506 H
123 C123	-3.6718	2.6791	-0.4606 C
124 H124	-3.7664	2.6959	-1.5631 H
125 O125	-2.5532	2.6797	0.0654 O
126 C126	-4.9687	2.6565	0.2989 C
127 H127	-5.5578	1.7746	0.0140 H
128 H128	-4.7814	2.6410	1.3746 H
129 H129	-5.5721	3.5372	0.0419 H
130 C130	-1.8936	3.8635	-2.9094 C
131 H131	-2.8253	4.3488	-2.5615 H
132 O132	-1.2120	3.1956	-2.1236 O
133 C133	-1.5523	4.0829	-4.3566 C
134 H134	-1.4506	5.1569	-4.5620 H
135 H135	-0.6223	3.5706	-4.6120 H
136 H136	-2.3648	3.7135	-4.9963 H
137 C137	0.8501	3.4503	3.1902 C
138 H138	1.8853	3.0641	3.2511 H
139 O139	0.3698	3.7660	2.0958 O
140 C140	0.1195	3.5497	4.4999 C
141 H141	0.6670	4.2068	5.1887 H
142 H142	-0.8896	3.9381	4.3462 H
143 H143	0.0663	2.5628	4.9784 H
144 C144	0.5801	4.1264	-2.9926 C
145 H145	1.4062	4.8612	-3.0401 H
146 O146	-0.0528	3.9726	-1.9420 O
147 C147	0.3138	3.3704	-4.2641 C
148 H148	1.2138	2.8218	-4.5727 H
149 H149	-0.5135	2.6709	-4.1268 H
150 H150	0.0750	4.0698	-5.0762 H
151 C151	1.4399	4.3105	-2.3098 C
152 H152	2.5091	4.0404	-2.2172 H
153 O153	0.7256	4.3673	-1.3025 O
154 C154	0.9623	4.5878	-3.7076 C
155 H155	1.1274	3.7085	-4.3445 H
156 H156	-0.0991	4.8451	-3.7050 H
157 H157	1.5405	5.4110	-4.1478 H
158 C158	2.5319	4.7237	0.5858 C
159 H159	2.2110	4.8778	1.6336 H
160 O160	1.7493	4.2345	-0.2365 O
161 C161	3.9404	5.1450	0.2728 C
162 H162	4.6485	4.5973	0.9090 H
163 H163	4.1707	4.9580	-0.7782 H
164 H164	4.0737	6.2119	0.4958 H
165 C165	-2.5832	-0.1308	-4.1400 C
166 H166	-3.2132	-0.1057	-3.2306 H
167 O167	-1.3925	-0.4533	-4.0603 O
168 C168	-3.2784	0.2458	-5.4182 C
169 H169	-3.6883	1.2616	-5.3400 H
170 H170	-2.5849	0.1936	-6.2602 H
171 H171	-4.1283	-0.4259	-5.5979 H
172 C172	-5.6112	-1.3588	0.2767 C
173 H173	-5.5727	-1.0718	1.3448 H
174 O174	-6.6361	-1.8667	-0.1920 O
175 C175	-4.3606	-1.0860	-0.5111 C
176 H176	-3.5100	-1.6194	-0.0660 H
177 H177	-4.4872	-1.3987	-1.5497 H
178 H178	-4.1175	-0.0157	-0.4748 H
179 C179	-5.2334	1.1651	-0.4603 C
180 H180	-5.0813	1.1351	0.6354 H
181 O181	-5.6761	2.1869	-0.9968 O
182 C182	-4.8685	-0.0927	-1.1979 C
183 H183	-5.4556	-0.9384	-0.8156 H
184 H184	-5.0495	0.0257	-2.2683 H
185 H185	-3.8118	-0.3375	-1.0271 H
186 C186	1.9225	4.1556	-1.0187 C
187 H187	1.8864	4.4263	-2.0911 H
188 O188	1.0674	4.5924	-0.2402 O
189 C189	3.0541	3.2511	-0.6183 C
190 H190	4.0167	3.7194	-0.8634 H
191 H191	3.0120	3.0369	0.4517 H
192 H192	3.0052	2.3118	-1.1850 H
193 C193	4.7243	-2.0370	2.7651 C
194 H194	4.1155	-1.8886	3.6772 H
195 O195	4.2368	-1.8131	1.6514 O
196 C196	6.1308	-2.5133	2.9975 C
197 H197	6.1212	-3.4703	3.5360 H
198 H198	6.6561	-2.6319	2.0475 H
199 H199	6.6716	-1.7983	3.6316 H
200 C200	5.1215	-0.8668	2.0233 C
201 H201	5.4255	-1.0277	0.9714 H
202 O202	3.9771	-1.1576	2.3890 O
203 C203	6.1801	-0.2895	2.9206 C
204 H204	6.5165	0.6810	2.5319 H
205 H205	5.7952	-0.1651	3.9350 H
206 H206	7.0600	-0.9463	2.9376 H
207 C207	-0.3568	3.9300	2.5747 C
208 H208	-0.2436	3.9135	3.6753 H
209 O209	0.6433	3.9706	1.8493 O
210 C210	-1.7723	3.8997	2.0702 C
211 H211	-2.3317	4.7593	2.4631 H
212 H212	-1.7896	3.9185	0.9785 H
213 H213	-2.2829	2.9973	2.4320 H
214 C214	-4.5068	-1.3834	2.4075 C
215 H215	-5.0171	-2.3215	2.6976 H
216 O216	-4.0393	-0.6382	3.2759 O
217 C217	-4.4396	-1.1145	0.9303 C
218 H218	-5.4524	-1.0728	0.5077 H
219 H219	-3.9218	-0.1728	0.7363 H
220 H220	-3.9172	-1.9349	0.4206 H
221 C221	-3.2334	-0.8942	-2.9282 C
222 H222	-3.9798	-0.6212	-2.1581 H
223 O223	-2.6330	-1.9722	-2.8547 O
224 C224	-3.0292	0.1202	-4.0183 C
225 H225	-2.7096	1.0784	-3.5873 H
226 H226	-2.2794	-0.2301	-4.7309 H
227 H227	-3.9762	0.3081	-4.5414 H
228 C228	-4.4947	-2.7474	-1.3232 C
229 H229	-4.4880	-2.2747	-0.3227 H
230 O230	-3.5897	-3.5242	-1.6478 O
231 C231	-5.6518	-2.3734	-2.2066 C
232 H232	-5.6703	-1.2869	-2.3650 H
233 H233	-5.5782	-2.8835	-3.1694 H
234 H234	-6.5997	-2.6388	-1.7198 H
235 C235	-4.3822	-1.3311	1.2753 C
236 H236	-3.2774	-1.3802	1.3135 H
237 O237	-4.9638	-1.2965	0.1851 O
238 C238	-5.0745	-1.3113	2.6093 C
239 H239	-4.7352	-0.4486	3.1980 H
240 H240	-6.1575	-1.2626	2.4773 H
241 H241	-4.8128	-2.2098	3.1838 H
242 C242	4.5843	0.9129	2.5434 C
243 H243	5.6137	0.8228	2.1474 H
244 O244	3.7502	0.0316	2.3076 O
245 C245	4.3102	2.1477	3.3554 C
246 H246	4.5020	3.0458	2.7532 H
247 H247	3.2755	2.1538	3.7045 H
248 H248	4.9905	2.1922	4.2163 H
249 C249	-4.2609	1.5145	2.7136 C
250 H250	-5.1761	1.0783	2.2702 H
251 O251	-4.0801	2.7370	2.6845 O
252 C252	-3.3056	0.5280	3.3245 C
253 H253	-2.9805	-0.2001	2.5694 H
254 H254	-2.4351	1.0434	3.7361 H
255 H255	-3.8070	-0.0412	4.1184 H
256 C256	-4.2454	2.6064	-2.9134 C
257 H257	-4.8607	3.1382	-2.1629 H
258 O258	-4.1204	3.0692	-4.0528 O
259 C259	-3.6076	1.3307	-2.4391 C
260 H260	-4.3788	0.6266	-2.0994 H
261 H261	-3.0220	0.8752	-3.2404 H
262 H262	-2.9590	1.5311	-1.5760 H
263 C263	0.7566	3.4385	2.9406 C
264 H264	0.4039	4.4421	3.2454 H
265 O265	-0.0589	2.5387	2.7096 O
266 C266	2.2479	3.2810	2.8390 C
267 H267	2.7181	3.5063	3.8056 H
268 H268	2.5051	2.2645	2.5338 H
269 H269	2.6548	3.9983	2.1139 H
270 C270	1.0372	-6.1476	-5.1661 C
271 H271	0.6131	-5.4478	-5.9111 H
272 O272	1.4311	-5.7252	-4.0731 O
273 C273	1.0866	-7.5892	-5.5885 C
274 H274	1.6842	-7.6942	-6.5038 H
275 H275	1.5172	-8.2051	-4.7962 H
276 H276	0.0763	-7.9476	-5.8267 H
277 C277	2.4600	-1.7903	-6.0863 C
278 H278	2.1609	-0.8700	-6.6231 H
279 O279	1.6858	-2.3161	-5.2788 O
280 C280	3.8296	-2.3144	-6.4160 C
281 H281	4.5889	-1.5526	-6.1943 H
282 H282	4.0403	-3.2202	-5.8436 H
283 H283	3.9024	-2.5312	-7.4901 H
284 C284	1.9382	1.5265	-5.0465 C
285 H285	1.1131	2.0822	-5.5311 H
286 O286	1.6878	0.6035	-4.2633 O
287 C287	3.3241	1.9782	-5.4130 C
288 H288	3.4564	3.0376	-5.1557 H
289 H289	4.0724	1.3776	-4.8914 H
290 H290	3.4742	1.8944	-6.4976 H
291 C291	-1.9734	-4.2988	-4.5919 C
292 H292	-2.4006	-3.2821	-4.6832 H
293 O293	-1.6887	-4.7537	-3.4784 O
294 C294	-1.7816	-5.0376	-5.8867 C
295 H295	-1.1173	-4.4690	-6.5510 H
296 H296	-1.3577	-6.0271	-5.7030 H
297 H297	-2.7419	-5.1387	-6.4096 H
298 C298	-3.4353	3.5715	-2.7283 C
299 H299	-4.5371	3.6680	-2.6905 H
300 O300	-2.7679	4.3533	-3.4148 O
301 C301	-2.8561	2.4546	-1.9061 C
302 H302	-3.2737	1.4918	-2.2295 H
303 H303	-1.7684	2.4336	-2.0019 H
304 H304	-3.1313	2.5808	-0.8505 H
305 C305	-2.5285	-0.8430	-4.5088 C
306 H306	-3.0849	0.0444	-4.1516 H
307 O307	-1.6516	-0.7190	-5.3711 O
308 C308	-2.9211	-2.1491	-3.8771 C
309 H309	-3.9872	-2.3474	-4.0511 H
310 H310	-2.3240	-2.9666	-4.2866 H
311 H311	-2.7816	-2.0993	-2.7890 H
312 C312	-4.5080	-2.8571	-4.2163 C
313 H313	-5.2176	-2.0401	-3.9849 H
314 O314	-4.3624	-3.2397	-5.3827 O
315 C315	-3.7742	-3.4293	-3.0360 C
316 H316	-4.4893	-3.8239	-2.3019 H
317 H317	-3.0987	-4.2257	-3.3552 H
318 H318	-3.2019	-2.6411	-2.5289 H
319 C319	1.5693	-7.6342	0.1609 C
320 H320	1.9250	-7.1166	-0.7502 H
321 O321	0.8644	-8.6450	0.0642 O
322 C322	2.0032	-7.0215	1.4630 C
323 H323	1.6529	-5.9826	1.5268 H
324 H324	1.6089	-7.5942	2.3051 H
325 H325	3.0994	-6.9903	1.5188 H
326 C326	4.8715	-5.7026	1.4838 C
327 H327	5.0266	-5.7582	2.5781 H
328 O328	5.8436	-5.6490	0.7220 O
329 C329	3.4374	-5.6988	1.0338 C
330 H330	2.9050	-4.8466	1.4770 H
331 H331	3.3786	-5.6423	-0.0552 H
332 H332	2.9293	-6.6069	1.3844 H
333 C333	-0.2467	-5.1885	6.9668 C
334 H334	-1.2572	-5.3631	7.3827 H
335 O335	0.5245	-4.3987	7.5231 O
336 C336	0.0829	-5.9647	5.7226 C
337 H337	-0.6366	-5.7271	4.9277 H
338 H338	1.0946	-5.7319	5.3836 H
339 H339	-0.0029	-7.0422	5.9160 H
@<TRIPOS>BOND
1 1 2 2
2 1 3 1
3 1 16 1
4 3 4 1
5 5 9 1
6 5 15 1
7 5 16 1
8 6 7 1
9 6 8 1
10 6 9 2
11 9 10 1
12 10 11 1
13 10 12 1
14 10 13 1
15 14 15 1
16 14 17 1
17 14 18 1
18 14 19 1
19 15 20 1
20 15 21 1
21 16 17 1
22 16 22 1
23 17 23 1
24 17 24 1
25 25 26 1
26 25 27 2
27 25 28 1
28 28 29 1
29 28 30 1
30 28 31 1
31 32 33 1
32 32 34 2
33 32 35 1
34 35 36 1
35 35 37 1
36 35 38 1
37 39 40 1
38 39 41 2
39 39 42 1
40 42 43 1
41 42 44 1
42 42 45 1
43 46 47 1
44 46 48 2
45 46 49 1
46 49 50 1
47 49 51 1
48 49 52 1
49 53 54 1
50 53 55 2
51 53 56 1
52 56 57 1
53 56 58 1
54 56 59 1
55 60 61 1
56 60 62 2
57 60 63 1
58 63 64 1
59 63 65 1
60 63 66 1
61 67 68 1
62 67 69 2
63 67 70 1
64 70 71 1
65 70 72 1
66 70 73 1
67 74 75 1
68 74 76 2
69 74 77 1
70 77 78 1
71 77 79 1
72 77 80 1
73 81 82 1
74 81 83 2
75 81 84 1
76 84 85 1
77 84 86 1
78 84 87 1
79 88 89 1
80 88 90 2
81 88 91 1
82 91 92 1
83 91 93 1
84 91 94 1
85 95 96 1
86 95 97 2
87 95 98 1
88 98 99 1
89 98 100 1
90 98 101 1
91 102 103 1
92 102 104 2
93 102 105 1
94 105 106 1
95 105 107 1
96 105 108 1
97 109 110 1
98 109 111 2
99 109 112 1
100 112 113 1
101 112 114 1
102 112 115 1
103 116 117 1
104 116 118 2
105 116 119 1
106 119 120 1
107 119 121 1
108 119 122 1
109 123 124 1
110 123 125 2
111 123 126 1
112 126 127 1
113 126 128 1
114 126 129 1
115 130 131 1
116 130 132 2
117 130 133 1
118 133 134 1
119 133 135 1
120 133 136 1
121 137 138 1
122 137 139 2
123 137 140 1
124 140 141 1
125 140 142 1
126 140 143 1
127 144 145 1
128 144 146 2
129 144 147 1
130 147 148 1
131 147 149 1
132 147 150 1
133 151 152 1
134 151 153 2
135 151 154 1
136 154 155 1
137 154 156 1
138 154 157 1
139 158 159 1
140 158 160 2
141 158 161 1
142 161 162 1
143 161 163 1
144 161 164 1
145 165 166 1
146 165 167 2
147 165 168 1
148 168 169 1
149 168 170 1
150 168 171 1
151 172 173 1
152 172 174 2
153 172 175 1
154 175 176 1
155 175 177 1
156 175 178 1
157 179 180 1
158 179 181 2
159 179 182 1
160 182 183 1
161 182 184 1
162 182 185 1
163 186 187 1
164 186 188 2
165 186 189 1
166 189 190 1
167 189 191 1
168 189 192 1
169 193 194 1
170 193 195 2
171 193 196 1
172 196 197 1
173 196 198 1
174 196 199 1
175 200 201 1
176 200 202 2
177 200 203 1
178 203 204 1
179 203 205 1
180 203 206 1
181 207 208 1
182 207 209 2
183 207 210 1
184 210 211 1
185 210 212 1
186 210 213 1
187 214 215 1
188 214 216 2
189 214 217 1
190 217 218 1
191 217 219 1
192 217 220 1
193 221 222 1
194 221 223 2
195 221 224 1
196 224 225 1
197 224 226 1
198 224 227 1
199 228 229 1
200 228 230 2
201 228 231 1
202 231 232 1
203 231 233 1
204 231 234 1
205 235 236 1
206 235 237 2
207 235 238 1
208 238 239 1
209 238 240 1
210 238 241 1
211 242 243 1
212 242 244 2
213 242 245 1
214 245 246 1
215 245 247 1
216 245 248 1
217 249 250 1
218 249 251 2
219 249 252 1
220 252 253 1
221 252 254 1
222 252 255 1
223 256 257 1
224 256 258 2
225 256 259 1
226 259 260 1
227 259 261 1
228 259 262 1
229 263 264 1
230 263 265 2
231 263 266 1
232 266 267 1
233 266 268 1
234 266 269 1
235 270 271 1
236 270 272 2
237 270 273 1
238 273 274 1
239 273 275 1
240 273 276 1
241 277 278 1
242 277 279 2
243 277 280 1
244 280 281 1
245 280 282 1
246 280 283 1
247 284 285 1
248 284 286 2
249 284 287 1
250 287 288 1
251 287 289 1
252 287 290 1
253 291 292 1
254 291 293 2
255 291 294 1
256 294 295 1
257 294 296 1
258 294 297 1
259 298 299 1
260 298 300 2
261 298 301 1
262 301 302 1
263 301 303 1
264 301 304 1
265 305 306 1
266 305 307 2
267 305 308 1
268 308 309 1
269 308 310 1
270 308 311 1
271 312 313 1
272 312 314 2
273 312 315 1
274 315 316 1
275 315 317 1
276 315 318 1
277 319 320 1
278 319 321 2
279 319 322 1
280 322 323 1
281 322 324 1
282 322 325 1
283 326 327 1
284 326 328 2
285 326 329 1
286 329 330 1
287 329 331 1
288 329 332 1
289 333 334 1
290 333 335 2
291 333 336 1
292 336 337 1
293 336 338 1
294 336 339 1
