@<TRIPOS>MOLECULE
Molecule Name
367 318
SMALL
NO_CHARGES

@<TRIPOS>ATOM
1 C1	0.0000	0.0000	0.0000 C
2 O2	-1.2224	0.0000	0.0000 O
3 O3	0.6889	1.2091	0.0000 O
4 H4	1.6619	1.0986	0.0171 H
5 N5	0.2228	-2.4953	0.2052 N
6 C6	-1.2833	-3.8880	1.4812 C
7 H7	-1.5604	-4.5006	0.6328 H
8 H8	-1.7339	-4.1436	2.4315 H
9 C9	-0.4480	-2.8287	1.3905 C
10 C10	-0.1454	-1.9642	2.5953 C
11 H11	-0.5315	-0.9457	2.4721 H
12 H12	-0.6190	-2.3887	3.4829 H
13 H13	0.9334	-1.8988	2.7894 H
14 C14	1.4256	-2.9048	-1.7756 C
15 C15	0.1962	-3.3662	-0.9773 C
16 C16	0.9088	-1.2350	-0.0444 C
17 C17	1.4871	-1.3889	-1.4950 C
18 H18	2.3246	-3.4016	-1.3936 H
19 H19	1.3444	-3.1226	-2.8446 H
20 H20	0.2672	-4.4128	-0.6630 H
21 H21	-0.7346	-3.2485	-1.5541 H
22 H22	1.7231	-1.0765	0.6818 H
23 H23	0.8497	-0.8507	-2.2057 H
24 H24	2.4984	-0.9793	-1.5771 H
25 C25	4.6959	0.7162	2.0668 C
26 H26	4.5402	-0.0580	2.8420 H
27 O27	4.2511	0.5487	0.9256 O
28 C28	5.4618	1.9307	2.5111 C
29 H29	6.4553	1.6378	2.8761 H
30 H30	5.5677	2.6387	1.6864 H
31 H31	4.9462	2.4161	3.3503 H
32 C32	4.7616	1.8646	-0.6927 C
33 H33	4.0049	2.5860	-1.0555 H
34 O34	4.4543	1.0167	0.1527 O
35 C35	6.1310	2.0065	-1.2959 C
36 H36	6.5271	3.0121	-1.1009 H
37 H37	6.8102	1.2579	-0.8826 H
38 H38	6.0766	1.8934	-2.3868 H
39 C39	3.5688	3.4278	-1.0461 C
40 H40	2.9866	3.5879	-0.1188 H
41 O41	3.6590	2.2954	-1.5335 O
42 C42	4.2079	4.6574	-1.6281 C
43 H43	4.8891	5.1113	-0.8961 H
44 H44	4.7594	4.4078	-2.5371 H
45 H45	3.4411	5.4095	-1.8564 H
46 C46	1.8596	4.3370	-0.8751 C
47 H47	0.9670	3.9733	-0.3314 H
48 O48	2.9391	3.7461	-0.7594 O
49 C49	1.6452	5.5575	-1.7256 C
50 H50	1.2850	6.3903	-1.1070 H
51 H51	2.5739	5.8447	-2.2231 H
52 H52	0.8689	5.3623	-2.4773 H
53 C53	-1.0194	2.0370	-4.1747 C
54 H54	-1.1739	2.6527	-5.0812 H
55 O55	-0.0651	1.2538	-4.1128 O
56 C56	-2.0303	2.2337	-3.0800 C
57 H57	-3.0387	2.0090	-3.4524 H
58 H58	-1.8016	1.5897	-2.2282 H
59 H59	-2.0383	3.2834	-2.7575 H
60 C60	4.0036	1.0807	3.1327 C
61 H61	3.8683	2.1640	2.9517 H
62 O62	3.2325	0.2649	2.6151 O
63 C63	5.1570	0.7136	4.0237 C
64 H64	5.0422	1.1911	5.0060 H
65 H65	5.2152	-0.3699	4.1468 H
66 H66	6.0973	1.0878	3.5975 H
67 C67	3.9577	-3.8309	2.5469 C
68 H68	5.0576	-3.9361	2.6076 H
69 O69	3.4591	-2.8767	1.9395 O
70 C70	3.1667	-4.9053	3.2390 C
71 H71	3.4274	-4.9386	4.3053 H
72 H72	2.0957	-4.7227	3.1285 H
73 H73	3.4186	-5.8886	2.8203 H
74 C74	2.9697	2.3828	-2.5173 C
75 H75	2.3609	1.5146	-2.8339 H
76 O76	3.7986	2.2600	-1.6086 O
77 C77	2.7060	3.6623	-3.2606 C
78 H78	1.6525	3.9523	-3.1511 H
79 H79	3.3479	4.4619	-2.8847 H
80 H80	2.8853	3.5190	-4.3344 H
81 C81	4.6150	-2.5793	1.4880 C
82 H82	4.1839	-3.4819	1.0146 H
83 O83	4.4773	-1.4733	0.9535 O
84 C84	5.3479	-2.8144	2.7790 C
85 H85	6.1747	-3.5197	2.6208 H
86 H86	5.7381	-1.8740	3.1738 H
87 H87	4.6762	-3.2738	3.5163 H
88 C88	4.8144	2.5590	-0.9070 C
89 H89	4.8137	2.9025	0.1449 H
90 O90	3.7547	2.2311	-1.4526 O
91 C91	6.1598	2.5303	-1.5765 C
92 H92	6.8427	1.8717	-1.0235 H
93 H93	6.0667	2.1807	-2.6069 H
94 H94	6.6082	3.5326	-1.5658 H
95 C95	5.9150	-2.1680	-0.3451 C
96 H96	5.8922	-3.2024	-0.7375 H
97 O97	4.8611	-1.5417	-0.1870 O
98 C98	7.2819	-1.6235	-0.0378 C
99 H99	7.9058	-1.6377	-0.9414 H
100 H100	7.2100	-0.6024	0.3426 H
101 H101	7.7836	-2.2593	0.7037 H
102 C102	4.1553	-3.1040	1.7615 C
103 H103	3.6194	-2.6595	2.6216 H
104 O104	4.2067	-2.5001	0.6841 O
105 C105	4.7838	-4.4455	2.0150 C
106 H106	4.0176	-5.1690	2.3242 H
107 H107	5.2888	-4.8070	1.1168 H
108 H108	5.5045	-4.3749	2.8405 H
109 C109	5.4851	-2.4226	0.4016 C
110 H110	6.1415	-1.6968	-0.1151 H
111 O111	4.2564	-2.3183	0.3145 O
112 C112	6.1944	-3.4944	1.1809 C
113 H113	6.8373	-3.0412	1.9472 H
114 H114	5.4729	-4.1629	1.6554 H
115 H115	6.8514	-4.0717	0.5170 H
116 C116	4.7187	-1.4345	3.2326 C
117 H117	5.1952	-0.4366	3.1912 H
118 O118	3.7639	-1.6965	2.4926 O
119 C119	5.3134	-2.3937	4.2253 C
120 H120	5.2606	-1.9707	5.2374 H
121 H121	4.7842	-3.3486	4.1984 H
122 H122	6.3769	-2.5547	4.0042 H
123 C123	2.0122	1.0121	4.0186 C
124 H124	2.1763	0.0132	4.4657 H
125 O125	1.7602	1.1176	2.8130 O
126 C126	2.1195	2.1711	4.9695 C
127 H127	3.1144	2.1872	5.4343 H
128 H128	1.9439	3.1130	4.4455 H
129 H129	1.3911	2.0602	5.7837 H
130 C130	2.1553	2.4647	3.6741 C
131 H131	2.3057	1.6606	4.4194 H
132 O132	2.3515	2.2421	2.4741 O
133 C133	1.7119	3.7881	4.2320 C
134 H134	2.4482	4.1574	4.9583 H
135 H135	1.5887	4.5190	3.4301 H
136 H136	0.7638	3.6709	4.7735 H
137 C137	-4.5401	0.9398	-0.6225 C
138 H138	-3.7236	0.5648	-1.2685 H
139 O139	-5.3363	1.7805	-1.0553 O
140 C140	-4.5868	0.3585	0.7628 C
141 H141	-3.6438	0.5594	1.2885 H
142 H142	-5.4196	0.7828	1.3275 H
143 H143	-4.6942	-0.7331	0.7108 H
144 C144	3.8542	-1.6107	4.1025 C
145 H145	3.2268	-2.4840	4.3640 H
146 O146	3.4107	-0.7300	3.3570 O
147 C147	5.2289	-1.5977	4.7099 C
148 H148	5.7847	-2.4946	4.4055 H
149 H149	5.7754	-0.7045	4.4000 H
150 H150	5.1580	-1.6255	5.8054 H
151 C151	-1.8367	2.9703	-3.4208 C
152 H152	-2.8839	2.6755	-3.6234 H
153 O153	-1.0210	3.0357	-4.3472 O
154 C154	-1.5163	3.2689	-1.9830 C
155 H155	-1.7290	2.3909	-1.3585 H
156 H156	-0.4665	3.5501	-1.8757 H
157 H157	-2.1557	4.0821	-1.6147 H
158 C158	-2.0388	3.8014	-2.1867 C
159 H159	-2.2394	4.2242	-1.1839 H
160 O160	-1.2638	4.3774	-2.9584 O
161 C161	-2.7625	2.5233	-2.5056 C
162 H162	-3.8477	2.6756	-2.4329 H
163 H163	-2.5066	2.1794	-3.5100 H
164 H164	-2.5015	1.7486	-1.7724 H
165 C165	-3.7093	1.8294	-0.1488 C
166 H166	-3.6684	1.0856	-0.9672 H
167 O167	-4.4527	1.6435	0.8211 O
168 C168	-2.8189	3.0282	-0.3202 C
169 H169	-3.0731	3.5578	-1.2480 H
170 H170	-2.9227	3.7061	0.5297 H
171 H171	-1.7719	2.7106	-0.4133 H
172 C172	-3.5262	4.1646	0.3798 C
173 H173	-3.6239	3.8289	1.4298 H
174 O174	-4.3615	4.9368	-0.1041 O
175 C175	-2.3402	3.6195	-0.3652 C
176 H176	-2.3763	2.5220	-0.3814 H
177 H177	-2.3228	4.0013	-1.3882 H
178 H178	-1.4107	3.8983	0.1487 H
179 C179	-2.5275	-1.2278	-3.8958 C
180 H180	-2.8243	-0.6955	-2.9721 H
181 O181	-2.1048	-2.3877	-3.8341 O
182 C182	-2.6796	-0.4449	-5.1698 C
183 H183	-2.0800	0.4739	-5.1223 H
184 H184	-2.3653	-1.0444	-6.0268 H
185 H185	-3.7250	-0.1347	-5.2999 H
186 C186	-4.6713	1.3951	1.2571 C
187 H187	-3.7264	1.4416	1.8312 H
188 O188	-5.7539	1.3278	1.8499 O
189 C189	-4.5207	1.4201	-0.2382 C
190 H190	-3.9021	0.5754	-0.5695 H
191 H191	-5.4986	1.3708	-0.7218 H
192 H192	-4.0004	2.3355	-0.5500 H
193 C193	-5.6884	-1.6495	0.9687 C
194 H194	-5.3571	-1.9099	1.9920 H
195 O195	-6.8541	-1.2909	0.7672 O
196 C196	-4.6382	-1.7673	-0.1000 C
197 H197	-4.2532	-2.7951	-0.1394 H
198 H198	-5.0506	-1.4923	-1.0731 H
199 H199	-3.7847	-1.1180	0.1361 H
200 C200	-5.7039	-1.2859	1.7295 C
201 H201	-6.2371	-0.6424	1.0042 H
202 O202	-6.1503	-1.4328	2.8729 O
203 C203	-4.4473	-1.9325	1.2178 C
204 H204	-3.7355	-1.1647	0.8864 H
205 H205	-3.9890	-2.5464	1.9961 H
206 H206	-4.6727	-2.5549	0.3417 H
207 C207	-1.6716	3.1560	2.3163 C
208 H208	-1.1528	2.2221	2.6048 H
209 O209	-2.5202	3.6507	3.0666 O
210 C210	-1.2663	3.7371	0.9907 C
211 H211	-1.4464	3.0091	0.1884 H
212 H212	-1.8256	4.6529	0.7877 H
213 H213	-0.1898	3.9535	0.9866 H
214 C214	-4.9558	2.0811	-2.3304 C
215 H215	-5.5516	2.2560	-1.4144 H
216 O216	-4.9858	2.9008	-3.2551 O
217 C217	-4.1463	0.8147	-2.3426 C
218 H218	-4.8046	-0.0554	-2.2172 H
219 H219	-3.5926	0.7240	-3.2794 H
220 H220	-3.4455	0.8063	-1.4972 H
221 C221	-5.9989	-0.6129	-0.7529 C
222 H222	-6.1790	0.2755	-0.1181 H
223 O223	-6.8955	-1.4472	-0.9200 O
224 C224	-4.6281	-0.7042	-1.3626 C
225 H225	-3.8639	-0.7133	-0.5739 H
226 H226	-4.5393	-1.6073	-1.9701 H
227 H227	-4.4316	0.1795	-1.9840 H
228 C228	3.3823	2.4307	-3.0332 C
229 H229	3.0737	3.4434	-2.7110 H
230 O230	2.6034	1.4782	-2.9139 O
231 C231	4.7699	2.3283	-3.6017 C
232 H232	5.5070	2.6680	-2.8619 H
233 H233	4.9890	1.2986	-3.8921 H
234 H234	4.8700	2.9872	-4.4744 H
235 C235	-1.0470	1.7021	-4.0641 C
236 H236	-0.4684	2.4386	-3.4747 H
237 O237	-1.0634	0.5132	-3.7260 O
238 C238	-1.7753	2.2572	-5.2559 C
239 H239	-1.0644	2.7323	-5.9452 H
240 H240	-2.3170	1.4645	-5.7762 H
241 H241	-2.4789	3.0382	-4.9384 H
242 C242	-4.1737	-3.8023	-1.9570 C
243 H243	-3.7873	-4.3015	-1.0481 H
244 O244	-3.3997	-3.4884	-2.8683 O
245 C245	-5.6560	-3.5545	-1.9773 C
246 H246	-5.9464	-2.9313	-1.1210 H
247 H247	-5.9484	-3.0609	-2.9065 H
248 H248	-6.1989	-4.5037	-1.8769 H
249 C249	-2.0851	5.0803	0.5431 C
250 H250	-3.0859	4.8670	0.9643 H
251 O251	-1.6191	6.2237	0.6014 O
252 C252	-1.3810	3.9057	-0.0762 C
253 H253	-1.9888	3.4870	-0.8895 H
254 H254	-0.4054	4.2059	-0.4642 H
255 H255	-1.2530	3.1075	0.6670 H
256 C256	-0.9366	5.5829	-1.1682 C
257 H257	-1.9074	5.7425	-0.6616 H
258 O258	-0.1430	6.5219	-1.2971 O
259 C259	-0.6868	4.1850	-1.6606 C
260 H260	-1.4713	3.8886	-2.3697 H
261 H261	0.2898	4.1190	-2.1448 H
262 H262	-0.7323	3.4760	-0.8233 H
263 C263	-3.0198	2.7940	-3.6579 C
264 H264	-2.5569	3.7632	-3.3913 H
265 O265	-4.0362	2.7653	-4.3609 O
266 C266	-2.3294	1.5761	-3.1111 C
267 H267	-2.2928	1.6232	-2.0146 H
268 H268	-2.8513	0.6687	-3.4224 H
269 H269	-1.2893	1.5423	-3.4618 H
270 C270	-3.2822	0.2789	3.6863 C
271 H271	-3.2382	-0.2775	2.7307 H
272 O272	-2.2664	0.8228	4.1341 O
273 C273	-4.6279	0.3090	4.3551 C
274 H274	-4.9689	-0.7138	4.5635 H
275 H275	-4.5791	0.8767	5.2867 H
276 H276	-5.3720	0.7610	3.6859 H
277 C277	-5.4487	1.0701	1.0030 C
278 H278	-6.1609	0.3550	0.5493 H
279 O279	-5.5971	2.2853	0.8321 O
280 C280	-4.3384	0.4539	1.8072 C
281 H281	-3.7510	-0.2289	1.1787 H
282 H282	-3.6866	1.2290	2.2158 H
283 H283	-4.7544	-0.1481	2.6260 H
284 C284	-4.4304	-4.5355	-1.9217 C
285 H285	-4.9922	-3.7202	-1.4275 H
286 O286	-3.2095	-4.4353	-2.0869 O
287 C287	-5.2524	-5.7180	-2.3519 C
288 H288	-6.0362	-5.3986	-3.0517 H
289 H289	-4.6200	-6.4705	-2.8278 H
290 H290	-5.7621	-6.1590	-1.4850 H
291 C291	4.8343	-0.3561	1.9102 C
292 H292	5.1118	-0.0501	0.8836 H
293 O293	4.1260	-1.3531	2.0897 O
294 C294	5.3739	0.5129	3.0115 C
295 H295	5.0280	1.5469	2.8804 H
296 H296	5.0524	0.1390	3.9859 H
297 H297	6.4709	0.5381	2.9695 H
298 C298	-1.6878	3.1382	2.2708 C
299 H299	-1.3334	2.4337	1.4946 H
300 O300	-2.6881	2.8664	2.9443 O
301 C301	-0.8775	4.3952	2.4210 C
302 H302	-0.8575	4.9472	1.4718 H
303 H303	-1.2968	5.0289	3.2053 H
304 H304	0.1638	4.1462	2.6648 H
305 C305	-4.0403	-4.1687	5.5912 C
306 H306	-4.2316	-3.5573	6.4936 H
307 O307	-3.0424	-3.9507	4.8950 O
308 C308	-5.0589	-5.2367	5.3066 C
309 H309	-6.0534	-4.7871	5.1846 H
310 H310	-4.7920	-5.7884	4.4027 H
311 H311	-5.1265	-5.9299	6.1556 H
312 C312	-4.9004	-3.8579	0.0214 C
313 H313	-5.0932	-2.8094	-0.2754 H
314 O314	-4.0726	-4.5352	-0.5983 O
315 C315	-5.7014	-4.3558	1.1917 C
316 H316	-6.7751	-4.2757	0.9758 H
317 H317	-5.4481	-5.3946	1.4141 H
318 H318	-5.5082	-3.7317	2.0743 H
319 C319	-2.2029	-1.8531	-4.2775 C
320 H320	-2.1891	-2.9170	-3.9732 H
321 O321	-1.5439	-1.0193	-3.6461 O
322 C322	-3.0568	-1.5339	-5.4725 C
323 H323	-4.0980	-1.8264	-5.2815 H
324 H324	-3.0113	-0.4669	-5.7008 H
325 H325	-2.7197	-2.1123	-6.3428 H
326 C326	1.4261	-6.4635	2.4373 C
327 H327	0.9708	-5.8905	1.6073 H
328 O328	2.2517	-7.3518	2.1975 O
329 C329	0.9680	-6.0783	3.8160 C
330 H330	-0.1200	-6.2011	3.9004 H
331 H331	1.4662	-6.6917	4.5697 H
332 H332	1.1826	-5.0176	4.0025 H
333 C333	4.5639	-4.6583	1.4715 C
334 H334	5.0268	-3.6892	1.7381 H
335 O335	3.5475	-4.6871	0.7685 O
336 C336	5.2543	-5.8763	2.0183 C
337 H337	5.2909	-5.8292	3.1148 H
338 H338	4.7323	-6.7836	1.7070 H
339 H339	6.2943	-5.9101	1.6676 H
340 C340	5.7462	-1.6970	-1.5233 C
341 H341	6.0782	-2.4475	-0.7810 H
342 O342	5.6318	-0.5104	-1.1962 O
343 C343	5.4616	-2.2310	-2.8991 C
344 H344	4.6808	-3.0017	-2.8510 H
345 H345	5.1417	-1.4253	-3.5633 H
346 H346	6.3584	-2.7137	-3.3097 H
347 C347	2.0896	-5.8759	3.6054 C
348 H348	2.4224	-6.9186	3.4423 H
349 O349	2.7156	-4.9389	3.0973 O
350 C350	0.8646	-5.7150	4.4613 C
351 H351	1.0360	-6.1558	5.4524 H
352 H352	0.6092	-4.6587	4.5685 H
353 H353	0.0191	-6.2559	4.0158 H
354 C354	-4.8107	-5.2641	0.3687 C
355 H355	-3.9859	-5.5081	-0.3276 H
356 O356	-5.1813	-6.0948	1.2058 O
357 C357	-5.4082	-3.8944	0.2078 C
358 H358	-5.8008	-3.7709	-0.8104 H
359 H359	-6.2109	-3.7400	0.9319 H
360 H360	-4.6350	-3.1267	0.3445 H
361 C361	-0.3447	1.9889	6.4383 C
362 H362	0.0461	1.2266	7.1389 H
363 O363	-0.1510	3.1898	6.6580 O
364 C364	-1.0963	1.4518	5.2527 C
365 H365	-1.9546	0.8547	5.5886 H
366 H366	-1.4439	2.2696	4.6179 H
367 H367	-0.4520	0.7803	4.6697 H
@<TRIPOS>BOND
1 1 2 2
2 1 3 1
3 1 16 1
4 3 4 1
5 5 9 1
6 5 15 1
7 5 16 1
8 6 7 1
9 6 8 1
10 6 9 2
11 9 10 1
12 10 11 1
13 10 12 1
14 10 13 1
15 14 15 1
16 14 17 1
17 14 18 1
18 14 19 1
19 15 20 1
20 15 21 1
21 16 17 1
22 16 22 1
23 17 23 1
24 17 24 1
25 25 26 1
26 25 27 2
27 25 28 1
28 28 29 1
29 28 30 1
30 28 31 1
31 32 33 1
32 32 34 2
33 32 35 1
34 35 36 1
35 35 37 1
36 35 38 1
37 39 40 1
38 39 41 2
39 39 42 1
40 42 43 1
41 42 44 1
42 42 45 1
43 46 47 1
44 46 48 2
45 46 49 1
46 49 50 1
47 49 51 1
48 49 52 1
49 53 54 1
50 53 55 2
51 53 56 1
52 56 57 1
53 56 58 1
54 56 59 1
55 60 61 1
56 60 62 2
57 60 63 1
58 63 64 1
59 63 65 1
60 63 66 1
61 67 68 1
62 67 69 2
63 67 70 1
64 70 71 1
65 70 72 1
66 70 73 1
67 74 75 1
68 74 76 2
69 74 77 1
70 77 78 1
71 77 79 1
72 77 80 1
73 81 82 1
74 81 83 2
75 81 84 1
76 84 85 1
77 84 86 1
78 84 87 1
79 88 89 1
80 88 90 2
81 88 91 1
82 91 92 1
83 91 93 1
84 91 94 1
85 95 96 1
86 95 97 2
87 95 98 1
88 98 99 1
89 98 100 1
90 98 101 1
91 102 103 1
92 102 104 2
93 102 105 1
94 105 106 1
95 105 107 1
96 105 108 1
97 109 110 1
98 109 111 2
99 109 112 1
100 112 113 1
101 112 114 1
102 112 115 1
103 116 117 1
104 116 118 2
105 116 119 1
106 119 120 1
107 119 121 1
108 119 122 1
109 123 124 1
110 123 125 2
111 123 126 1
112 126 127 1
113 126 128 1
114 126 129 1
115 130 131 1
116 130 132 2
117 130 133 1
118 133 134 1
119 133 135 1
120 133 136 1
121 137 138 1
122 137 139 2
123 137 140 1
124 140 141 1
125 140 142 1
126 140 143 1
127 144 145 1
128 144 146 2
129 144 147 1
130 147 148 1
131 147 149 1
132 147 150 1
133 151 152 1
134 151 153 2
135 151 154 1
136 154 155 1
137 154 156 1
138 154 157 1
139 158 159 1
140 158 160 2
141 158 161 1
142 161 162 1
143 161 163 1
144 161 164 1
145 165 166 1
146 165 167 2
147 165 168 1
148 168 169 1
149 168 170 1
150 168 171 1
151 172 173 1
152 172 174 2
153 172 175 1
154 175 176 1
155 175 177 1
156 175 178 1
157 179 180 1
158 179 181 2
159 179 182 1
160 182 183 1
161 182 184 1
162 182 185 1
163 186 187 1
164 186 188 2
165 186 189 1
166 189 190 1
167 189 191 1
168 189 192 1
169 193 194 1
170 193 195 2
171 193 196 1
172 196 197 1
173 196 198 1
174 196 199 1
175 200 201 1
176 200 202 2
177 200 203 1
178 203 204 1
179 203 205 1
180 203 206 1
181 207 208 1
182 207 209 2
183 207 210 1
184 210 211 1
185 210 212 1
186 210 213 1
187 214 215 1
188 214 216 2
189 214 217 1
190 217 218 1
191 217 219 1
192 217 220 1
193 221 222 1
194 221 223 2
195 221 224 1
196 224 225 1
197 224 226 1
198 224 227 1
199 228 229 1
200 228 230 2
201 228 231 1
202 231 232 1
203 231 233 1
204 231 234 1
205 235 236 1
206 235 237 2
207 235 238 1
208 238 239 1
209 238 240 1
210 238 241 1
211 242 243 1
212 242 244 2
213 242 245 1
214 245 246 1
215 245 247 1
216 245 248 1
217 249 250 1
218 249 251 2
219 249 252 1
220 252 253 1
221 252 254 1
222 252 255 1
223 256 257 1
224 256 258 2
225 256 259 1
226 259 260 1
227 259 261 1
228 259 262 1
229 263 264 1
230 263 265 2
231 263 266 1
232 266 267 1
233 266 268 1
234 266 269 1
235 270 271 1
236 270 272 2
237 270 273 1
238 273 274 1
239 273 275 1
240 273 276 1
241 277 278 1
242 277 279 2
243 277 280 1
244 280 281 1
245 280 282 1
246 280 283 1
247 284 285 1
248 284 286 2
249 284 287 1
250 287 288 1
251 287 289 1
252 287 290 1
253 291 292 1
254 291 293 2
255 291 294 1
256 294 295 1
257 294 296 1
258 294 297 1
259 298 299 1
260 298 300 2
261 298 301 1
262 301 302 1
263 301 303 1
264 301 304 1
265 305 306 1
266 305 307 2
267 305 308 1
268 308 309 1
269 308 310 1
270 308 311 1
271 312 313 1
272 312 314 2
273 312 315 1
274 315 316 1
275 315 317 1
276 315 318 1
277 319 320 1
278 319 321 2
279 319 322 1
280 322 323 1
281 322 324 1
282 322 325 1
283 326 327 1
284 326 328 2
285 326 329 1
286 329 330 1
287 329 331 1
288 329 332 1
289 333 334 1
290 333 335 2
291 333 336 1
292 336 337 1
293 336 338 1
294 336 339 1
295 340 341 1
296 340 342 2
297 340 343 1
298 343 344 1
299 343 345 1
300 343 346 1
301 347 348 1
302 347 349 2
303 347 350 1
304 350 351 1
305 350 352 1
306 350 353 1
307 354 355 1
308 354 356 2
309 354 357 1
310 357 358 1
311 357 359 1
312 357 360 1
313 361 362 1
314 361 363 2
315 361 364 1
316 364 365 1
317 364 366 1
318 364 367 1
