@<TRIPOS>MOLECULE
Molecule Name
374 324
SMALL
NO_CHARGES

@<TRIPOS>ATOM
1 C1	0.0000	0.0000	0.0000 C
2 O2	-1.2229	0.0000	0.0000 O
3 O3	0.6880	1.2099	0.0000 O
4 H4	1.6609	1.1003	0.0231 H
5 N5	0.1873	-2.4895	0.1946 N
6 C6	-0.9302	-4.1097	1.5902 C
7 H7	-1.1974	-4.7528	0.7616 H
8 H8	-1.2439	-4.4316	2.5747 H
9 C9	-0.2489	-2.9503	1.4418 C
10 C10	0.0950	-2.0857	2.6347 C
11 H11	-0.3485	-1.0862	2.5496 H
12 H12	-0.2902	-2.5436	3.5478 H
13 H13	1.1798	-1.9650	2.7570 H
14 C14	0.3643	-2.2763	-2.1706 C
15 C15	-0.1536	-3.2000	-1.0503 C
16 C16	0.9015	-1.2475	-0.0452 C
17 C17	1.4670	-1.4428	-1.4831 C
18 H18	0.7407	-2.8345	-3.0322 H
19 H19	-0.4397	-1.6190	-2.5189 H
20 H20	0.3321	-4.1873	-1.0676 H
21 H21	-1.2367	-3.3618	-1.1173 H
22 H22	1.7145	-1.1048	0.6800 H
23 H23	1.6691	-0.4963	-1.9942 H
24 H24	2.4029	-2.0090	-1.4224 H
25 C25	4.8975	-0.6734	1.9965 C
26 H26	4.8029	-1.7740	2.0628 H
27 O27	4.2628	-0.0473	1.1403 O
28 C28	5.8255	-0.0433	2.9970 C
29 H29	6.8361	-0.4593	2.8889 H
30 H30	5.8576	1.0396	2.8595 H
31 H31	5.4945	-0.2761	4.0178 H
32 C32	3.7775	0.5913	3.1918 C
33 H33	4.0448	-0.4499	3.4546 H
34 O34	3.6243	0.9118	2.0078 O
35 C35	3.6258	1.5324	4.3539 C
36 H36	4.5606	1.5765	4.9285 H
37 H37	3.3625	2.5327	4.0038 H
38 H38	2.8500	1.1648	5.0386 H
39 C39	4.6883	1.9739	-2.4715 C
40 H40	5.6381	1.4163	-2.5792 H
41 O41	3.8017	1.5488	-1.7223 O
42 C42	4.5837	3.2349	-3.2827 C
43 H43	4.7032	3.0079	-4.3506 H
44 H44	3.6186	3.7179	-3.1158 H
45 H45	5.3937	3.9255	-3.0131 H
46 C46	1.9028	2.8829	2.6057 C
47 H47	2.0292	3.6621	1.8302 H
48 O48	2.5779	1.8484	2.5606 O
49 C49	0.8826	3.1869	3.6668 C
50 H50	-0.1026	3.3463	3.2087 H
51 H51	0.8244	2.3680	4.3869 H
52 H52	1.1447	4.1179	4.1869 H
53 C53	4.3436	3.1923	0.3030 C
54 H54	3.5256	3.8724	-0.0018 H
55 O55	4.0879	2.1560	0.9265 O
56 C56	5.7267	3.6267	-0.0937 C
57 H57	5.9512	4.6116	0.3371 H
58 H58	6.4677	2.8999	0.2459 H
59 H59	5.7898	3.7361	-1.1845 H
60 C60	4.1310	1.5976	-2.8098 C
61 H61	3.4976	2.5045	-2.7809 H
62 O62	4.1357	0.8142	-1.8536 O
63 C63	4.9448	1.4175	-4.0605 C
64 H64	5.6109	2.2786	-4.2048 H
65 H65	5.5364	0.5014	-4.0030 H
66 H66	4.2853	1.3766	-4.9375 H
67 C67	3.7064	3.3883	-1.9667 C
68 H68	4.0263	3.9346	-2.8744 H
69 O69	3.8142	2.1580	-1.9136 O
70 C70	3.1554	4.2422	-0.8593 C
71 H71	2.2848	4.8084	-1.2165 H
72 H72	2.8664	3.6234	-0.0071 H
73 H73	3.9048	4.9797	-0.5426 H
74 C74	2.6949	1.9995	3.7392 C
75 H75	2.9475	1.1138	4.3525 H
76 O76	2.6588	1.9102	2.5068 O
77 C77	2.4135	3.2595	4.5089 C
78 H78	3.2843	3.5306	5.1206 H
79 H79	2.1743	4.0785	3.8273 H
80 H80	1.5769	3.0996	5.2019 H
81 C81	2.2380	3.9866	1.3005 C
82 H82	2.0173	3.8546	2.3768 H
83 O83	3.3457	3.6708	0.8517 O
84 C84	1.1183	4.5581	0.4767 C
85 H85	0.8263	5.5421	0.8673 H
86 H86	1.4222	4.6533	-0.5679 H
87 H87	0.2317	3.9139	0.5459 H
88 C88	2.9033	4.7015	0.0608 C
89 H89	3.2588	4.8602	1.0967 H
90 O90	2.9001	3.5652	-0.4260 O
91 C91	2.4473	5.9376	-0.6624 C
92 H92	3.2650	6.6691	-0.7123 H
93 H93	2.1151	5.6890	-1.6725 H
94 H94	1.6270	6.4165	-0.1114 H
95 C95	5.2434	-0.5052	-2.1313 C
96 H96	4.9225	-1.4910	-2.5184 H
97 O97	4.4041	0.2972	-1.7073 O
98 C98	6.7236	-0.2473	-2.1683 C
99 H99	7.0945	-0.3234	-3.1991 H
100 H100	6.9491	0.7440	-1.7693 H
101 H101	7.2545	-1.0101	-1.5834 H
102 C102	3.1949	0.3426	3.6222 C
103 H103	2.5496	-0.1431	4.3787 H
104 O104	3.6419	-0.3142	2.6753 O
105 C105	3.4631	1.8047	3.8446 C
106 H106	3.9430	1.9564	4.8206 H
107 H107	4.1049	2.2001	3.0545 H
108 H108	2.5177	2.3630	3.8661 H
109 C109	-4.4977	-2.8672	-0.0807 C
110 H110	-4.0752	-3.2326	0.8746 H
111 O111	-4.0317	-3.2616	-1.1555 O
112 C112	-5.6359	-1.8939	0.0465 C
113 H113	-5.3153	-1.0102	0.6143 H
114 H114	-5.9892	-1.5878	-0.9405 H
115 H115	-6.4614	-2.3497	0.6091 H
116 C116	5.2434	-0.6618	2.3510 C
117 H117	6.1809	-1.2383	2.4661 H
118 O118	4.2339	-1.2059	1.8895 O
119 C119	5.3106	0.7748	2.7877 C
120 H120	6.0857	1.3063	2.2195 H
121 H121	4.3460	1.2649	2.6396 H
122 H122	5.5964	0.8348	3.8462 H
123 C123	2.6649	1.4940	3.9269 C
124 H124	2.3450	2.3451	3.2961 H
125 O125	2.5874	0.3386	3.4944 O
126 C126	3.1772	1.8584	5.2921 C
127 H127	2.4044	2.4008	5.8530 H
128 H128	3.4691	0.9616	5.8427 H
129 H129	4.0382	2.5343	5.2043 H
130 C130	-2.6330	4.2316	1.7680 C
131 H131	-2.0732	4.7368	0.9581 H
132 O132	-2.6605	4.7225	2.9021 O
133 C133	-3.3228	2.9546	1.3773 C
134 H134	-2.5902	2.2316	0.9944 H
135 H135	-3.8480	2.5264	2.2337 H
136 H136	-4.0359	3.1442	0.5641 H
137 C137	5.1987	-0.0481	-1.1973 C
138 H138	4.6826	0.8539	-1.5775 H
139 O139	4.6579	-0.7568	-0.3410 O
140 C140	6.5528	-0.3166	-1.7917 C
141 H141	7.2209	0.5358	-1.6096 H
142 H142	6.9867	-1.2215	-1.3611 H
143 H143	6.4716	-0.4284	-2.8811 H
144 C144	3.4060	1.8948	-4.4986 C
145 H145	2.7217	2.7645	-4.4952 H
146 O146	3.3608	1.0672	-3.5815 O
147 C147	4.3489	1.8191	-5.6666 C
148 H148	4.9754	2.7203	-5.7051 H
149 H149	4.9836	0.9339	-5.5888 H
150 H150	3.7831	1.7861	-6.6071 H
151 C151	5.2967	-4.4152	-1.1560 C
152 H152	4.6216	-5.2209	-1.5020 H
153 O153	4.8544	-3.2775	-0.9604 O
154 C154	6.7315	-4.8156	-0.9564 C
155 H155	7.1494	-5.2033	-1.8951 H
156 H156	7.3226	-3.9628	-0.6160 H
157 H157	6.7980	-5.6280	-0.2206 H
158 C158	-4.6411	3.3334	0.8499 C
159 H159	-4.8459	2.8037	1.7996 H
160 O160	-4.8340	4.5515	0.7656 O
161 C161	-4.1313	2.4737	-0.2726 C
162 H162	-4.8549	1.6790	-0.4981 H
163 H163	-3.9570	3.0760	-1.1667 H
164 H164	-3.1983	1.9773	0.0258 H
165 C165	4.1028	-4.3821	0.2512 C
166 H166	3.5749	-5.1687	-0.3208 H
167 O167	4.5706	-3.3987	-0.3337 O
168 C168	4.1926	-4.6117	1.7339 C
169 H169	4.7094	-5.5588	1.9387 H
170 H170	4.7267	-3.7904	2.2163 H
171 H171	3.1861	-4.7005	2.1639 H
172 C172	3.6286	-5.2967	-2.0310 C
173 H173	3.8102	-6.2744	-2.5165 H
174 O174	3.3236	-4.3127	-2.7143 O
175 C175	3.7805	-5.2795	-0.5358 C
176 H176	4.7950	-5.5932	-0.2558 H
177 H177	3.5839	-4.2797	-0.1430 H
178 H178	3.0886	-5.9987	-0.0777 H
179 C179	-3.7489	-0.9101	-2.4823 C
180 H180	-3.2969	-0.0691	-1.9229 H
181 O181	-3.4898	-2.0762	-2.1643 O
182 C182	-4.6626	-0.5193	-3.6099 C
183 H183	-4.1199	0.0964	-4.3395 H
184 H184	-5.0618	-1.4076	-4.1039 H
185 H185	-5.4898	0.0949	-3.2299 H
186 C186	-4.7722	-0.9716	3.0773 C
187 H187	-4.9709	0.1152	3.0128 H
188 O188	-5.0170	-1.5854	4.1219 O
189 C189	-4.2044	-1.5994	1.8352 C
190 H190	-3.2559	-1.1152	1.5672 H
191 H191	-4.0408	-2.6683	1.9877 H
192 H192	-4.8878	-1.4476	0.9892 H
193 C193	5.9337	-0.6234	-0.6324 C
194 H194	5.7977	0.3621	-1.1171 H
195 O195	4.9708	-1.3873	-0.5007 O
196 C196	7.3313	-0.9297	-0.1722 C
197 H197	7.6674	-0.1699	0.5460 H
198 H198	7.3731	-1.9174	0.2919 H
199 H199	8.0256	-0.8915	-1.0220 H
200 C200	-5.1172	0.1997	1.8707 C
201 H201	-4.3290	-0.1358	2.5712 H
202 O202	-6.2313	0.5209	2.2991 O
203 C203	-4.7238	0.2265	0.4203 C
204 H204	-4.4108	-0.7748	0.0954 H
205 H205	-5.5581	0.5682	-0.1959 H
206 H206	-3.8614	0.8906	0.2752 H
207 C207	-0.5981	0.4844	-4.9273 C
208 H208	-0.9059	-0.5117	-5.2982 H
209 O209	0.4296	0.6032	-4.2507 O
210 C210	-1.5035	1.6229	-5.3055 C
211 H211	-2.5184	1.4396	-4.9281 H
212 H212	-1.1251	2.5634	-4.8995 H
213 H213	-1.5804	1.6971	-6.3984 H
214 C214	3.6766	3.1611	-0.7441 C
215 H215	4.5126	3.0039	-1.4519 H
216 O216	3.8190	2.8894	0.4534 O
217 C217	2.4138	3.7093	-1.3472 C
218 H218	2.0468	3.0350	-2.1325 H
219 H219	1.6459	3.8322	-0.5805 H
220 H220	2.6137	4.6763	-1.8278 H
221 C221	-4.8032	-3.0031	-0.2104 C
222 H222	-4.9787	-3.9908	0.2569 H
223 O223	-5.2252	-2.7726	-1.3492 O
224 C224	-4.0408	-2.0172	0.6296 C
225 H225	-3.0564	-2.4270	0.8927 H
226 H226	-3.9144	-1.0747	0.0927 H
227 H227	-4.5712	-1.8359	1.5738 H
228 C228	4.9081	-4.1611	-0.8545 C
229 H229	4.2145	-4.7001	-1.5276 H
230 O230	4.9965	-2.9295	-0.9130 O
231 C231	5.6937	-5.0261	0.0909 C
232 H232	6.2937	-5.7531	-0.4726 H
233 H233	6.3489	-4.4139	0.7142 H
234 H234	5.0119	-5.6043	0.7286 H
235 C235	-2.1715	3.0538	1.8980 C
236 H236	-1.2994	2.5245	1.4693 H
237 O237	-2.4776	2.8847	3.0836 O
238 C238	-2.9119	3.9535	0.9486 C
239 H239	-3.2778	3.3761	0.0891 H
240 H240	-3.7531	4.4329	1.4537 H
241 H241	-2.2349	4.7207	0.5499 H
242 C242	-2.1590	3.0757	-3.5342 C
243 H243	-3.0932	3.5528	-3.8867 H
244 O244	-1.2650	2.7936	-4.3400 O
245 C245	-2.0839	2.8163	-2.0557 C
246 H246	-2.9130	2.1672	-1.7437 H
247 H247	-1.1326	2.3461	-1.7978 H
248 H248	-2.1926	3.7578	-1.5011 H
249 C249	2.4799	-6.0752	-3.8081 C
250 H250	2.0117	-6.2494	-4.7955 H
251 O251	2.5664	-4.9276	-3.3571 O
252 C252	2.9761	-7.3059	-3.1022 C
253 H253	3.7197	-7.8232	-3.7230 H
254 H254	3.4208	-7.0418	-2.1404 H
255 H255	2.1488	-8.0107	-2.9453 H
256 C256	5.2916	-4.5022	-1.9267 C
257 H257	5.5015	-4.4935	-3.0132 H
258 O258	4.7539	-3.5263	-1.3915 O
259 C259	5.7022	-5.7519	-1.1995 C
260 H260	6.7806	-5.9214	-1.3193 H
261 H261	5.4586	-5.6739	-0.1378 H
262 H262	5.1944	-6.6244	-1.6315 H
263 C263	-4.5683	-1.8687	2.9940 C
264 H264	-3.9438	-2.5194	3.6352 H
265 O265	-5.5286	-1.2593	3.4782 O
266 C266	-4.1583	-1.7996	1.5496 C
267 H267	-4.1771	-2.8029	1.1034 H
268 H268	-4.8262	-1.1381	0.9938 H
269 H269	-3.1256	-1.4355	1.4673 H
270 C270	-1.5253	3.7801	2.4374 C
271 H271	-1.1558	2.8927	2.9857 H
272 O272	-2.2485	4.6044	3.0080 O
273 C273	-1.0860	3.8828	1.0037 C
274 H274	-1.4172	2.9985	0.4430 H
275 H275	-1.4949	4.7843	0.5423 H
276 H276	0.0103	3.9029	0.9452 H
277 C277	-1.8941	2.9462	-3.4163 C
278 H278	-2.1993	3.5274	-2.5254 H
279 O279	-1.2677	3.4952	-4.3296 O
280 C280	-2.2938	1.4974	-3.4105 C
281 H281	-3.3851	1.4071	-3.3270 H
282 H282	-1.9534	1.0032	-4.3229 H
283 H283	-1.8661	0.9911	-2.5350 H
284 C284	-4.5329	1.9805	-2.0751 C
285 H285	-3.7793	2.7692	-1.8890 H
286 O286	-5.5557	2.2403	-2.7189 O
287 C287	-4.2107	0.6301	-1.4993 C
288 H288	-4.0857	0.7038	-0.4107 H
289 H289	-5.0046	-0.0833	-1.7301 H
290 H290	-3.2573	0.2649	-1.9037 H
291 C291	-5.2067	-2.0711	2.3861 C
292 H292	-5.1838	-2.3469	1.3146 H
293 O293	-6.2610	-2.1572	3.0258 O
294 C294	-3.8988	-1.6049	2.9614 C
295 H295	-3.5363	-0.7261	2.4116 H
296 H296	-4.0134	-1.3552	4.0183 H
297 H297	-3.1361	-2.3867	2.8474 H
298 C298	-4.4406	-5.5190	0.1845 C
299 H299	-4.4252	-4.6591	0.8808 H
300 O300	-3.4658	-5.7468	-0.5406 O
301 C301	-5.6974	-6.3431	0.2032 C
302 H302	-6.5642	-5.7154	-0.0430 H
303 H303	-5.6256	-7.1662	-0.5109 H
304 H304	-5.8718	-6.7429	1.2110 H
305 C305	4.8550	-0.3081	-4.2967 C
306 H306	5.1053	-1.2749	-4.7735 H
307 O307	3.7151	-0.1081	-3.8625 O
308 C308	5.9773	0.6894	-4.2305 C
309 H309	6.3419	0.9152	-5.2415 H
310 H310	5.6429	1.6096	-3.7468 H
311 H311	6.8252	0.2674	-3.6748 H
312 C312	-0.5269	-5.5293	-5.4246 C
313 H313	-1.3065	-5.8665	-4.7153 H
314 O314	0.1301	-4.5101	-5.1847 O
315 C315	-0.3513	-6.3861	-6.6469 C
316 H316	-1.2936	-6.4407	-7.2083 H
317 H317	0.4348	-5.9812	-7.2878 H
318 H318	-0.0966	-7.4134	-6.3545 H
319 C319	-1.2037	-5.8393	-4.8827 C
320 H320	-0.8604	-6.8913	-4.8741 H
321 O321	-0.5307	-4.9632	-4.3281 O
322 C322	-2.5020	-5.5892	-5.5975 C
323 H323	-3.3045	-6.1848	-5.1422 H
324 H324	-2.7629	-4.5295	-5.5566 H
325 H325	-2.4243	-5.9100	-6.6448 H
326 C326	-3.8650	-0.2940	3.0990 C
327 H327	-4.4567	-1.0752	2.5848 H
328 O328	-2.8429	-0.6009	3.7227 O
329 C329	-4.3962	1.1064	2.9732 C
330 H330	-5.4168	1.1606	3.3749 H
331 H331	-3.7533	1.8085	3.5083 H
332 H332	-4.4564	1.3937	1.9151 H
333 C333	-4.8604	-2.1216	2.5432 C
334 H334	-5.7482	-2.7817	2.5162 H
335 O335	-4.6068	-1.4652	3.5595 O
336 C336	-4.0330	-2.0999	1.2886 C
337 H337	-4.6468	-1.7773	0.4370 H
338 H338	-3.1816	-1.4257	1.4037 H
339 H339	-3.6741	-3.1112	1.0554 H
340 C340	-1.4234	-0.3630	-5.8051 C
341 H341	-1.0744	0.6376	-5.4866 H
342 O342	-0.9851	-1.3775	-5.2514 O
343 C343	-2.4313	-0.3711	-6.9201 C
344 H344	-2.0150	0.1215	-7.8090 H
345 H345	-2.7185	-1.3950	-7.1684 H
346 H346	-3.3217	0.2016	-6.6283 H
347 C347	-5.5837	-3.2924	1.1624 C
348 H348	-5.8058	-2.2119	1.0738 H
349 O349	-6.2220	-3.9933	1.9556 O
350 C350	-4.4861	-3.8016	0.2706 C
351 H351	-3.5513	-3.2638	0.4778 H
352 H352	-4.3353	-4.8723	0.4234 H
353 H353	-4.7352	-3.6103	-0.7816 H
354 C354	2.7737	1.0964	3.5627 C
355 H355	3.6265	0.5322	3.1397 H
356 O356	1.6146	0.7628	3.2921 O
357 C357	3.1405	2.2501	4.4536 C
358 H358	3.7601	2.9703	3.9028 H
359 H359	2.2418	2.7473	4.8246 H
360 H360	3.7430	1.8963	5.3006 H
361 C361	4.5916	-2.1985	-3.3544 C
362 H362	5.0242	-3.0341	-2.7720 H
363 O363	4.5857	-1.0545	-2.8861 O
364 C364	4.0389	-2.5683	-4.7023 C
365 H365	3.2505	-3.3248	-4.5925 H
366 H366	3.6346	-1.6870	-5.2046 H
367 H367	4.8256	-3.0183	-5.3224 H
368 C368	2.8550	-3.7391	5.3125 C
369 H369	3.6869	-4.1904	4.7390 H
370 O370	2.9980	-2.6331	5.8456 O
371 C371	1.5965	-4.5584	5.3783 C
372 H372	1.8059	-5.5361	5.8324 H
373 H373	0.8324	-4.0392	5.9607 H
374 H374	1.2196	-4.7535	4.3655 H
@<TRIPOS>BOND
1 1 2 2
2 1 3 1
3 1 16 1
4 3 4 1
5 5 9 1
6 5 15 1
7 5 16 1
8 6 7 1
9 6 8 1
10 6 9 2
11 9 10 1
12 10 11 1
13 10 12 1
14 10 13 1
15 14 15 1
16 14 17 1
17 14 18 1
18 14 19 1
19 15 20 1
20 15 21 1
21 16 17 1
22 16 22 1
23 17 23 1
24 17 24 1
25 25 26 1
26 25 27 2
27 25 28 1
28 28 29 1
29 28 30 1
30 28 31 1
31 32 33 1
32 32 34 2
33 32 35 1
34 35 36 1
35 35 37 1
36 35 38 1
37 39 40 1
38 39 41 2
39 39 42 1
40 42 43 1
41 42 44 1
42 42 45 1
43 46 47 1
44 46 48 2
45 46 49 1
46 49 50 1
47 49 51 1
48 49 52 1
49 53 54 1
50 53 55 2
51 53 56 1
52 56 57 1
53 56 58 1
54 56 59 1
55 60 61 1
56 60 62 2
57 60 63 1
58 63 64 1
59 63 65 1
60 63 66 1
61 67 68 1
62 67 69 2
63 67 70 1
64 70 71 1
65 70 72 1
66 70 73 1
67 74 75 1
68 74 76 2
69 74 77 1
70 77 78 1
71 77 79 1
72 77 80 1
73 81 82 1
74 81 83 2
75 81 84 1
76 84 85 1
77 84 86 1
78 84 87 1
79 88 89 1
80 88 90 2
81 88 91 1
82 91 92 1
83 91 93 1
84 91 94 1
85 95 96 1
86 95 97 2
87 95 98 1
88 98 99 1
89 98 100 1
90 98 101 1
91 102 103 1
92 102 104 2
93 102 105 1
94 105 106 1
95 105 107 1
96 105 108 1
97 109 110 1
98 109 111 2
99 109 112 1
100 112 113 1
101 112 114 1
102 112 115 1
103 116 117 1
104 116 118 2
105 116 119 1
106 119 120 1
107 119 121 1
108 119 122 1
109 123 124 1
110 123 125 2
111 123 126 1
112 126 127 1
113 126 128 1
114 126 129 1
115 130 131 1
116 130 132 2
117 130 133 1
118 133 134 1
119 133 135 1
120 133 136 1
121 137 138 1
122 137 139 2
123 137 140 1
124 140 141 1
125 140 142 1
126 140 143 1
127 144 145 1
128 144 146 2
129 144 147 1
130 147 148 1
131 147 149 1
132 147 150 1
133 151 152 1
134 151 153 2
135 151 154 1
136 154 155 1
137 154 156 1
138 154 157 1
139 158 159 1
140 158 160 2
141 158 161 1
142 161 162 1
143 161 163 1
144 161 164 1
145 165 166 1
146 165 167 2
147 165 168 1
148 168 169 1
149 168 170 1
150 168 171 1
151 172 173 1
152 172 174 2
153 172 175 1
154 175 176 1
155 175 177 1
156 175 178 1
157 179 180 1
158 179 181 2
159 179 182 1
160 182 183 1
161 182 184 1
162 182 185 1
163 186 187 1
164 186 188 2
165 186 189 1
166 189 190 1
167 189 191 1
168 189 192 1
169 193 194 1
170 193 195 2
171 193 196 1
172 196 197 1
173 196 198 1
174 196 199 1
175 200 201 1
176 200 202 2
177 200 203 1
178 203 204 1
179 203 205 1
180 203 206 1
181 207 208 1
182 207 209 2
183 207 210 1
184 210 211 1
185 210 212 1
186 210 213 1
187 214 215 1
188 214 216 2
189 214 217 1
190 217 218 1
191 217 219 1
192 217 220 1
193 221 222 1
194 221 223 2
195 221 224 1
196 224 225 1
197 224 226 1
198 224 227 1
199 228 229 1
200 228 230 2
201 228 231 1
202 231 232 1
203 231 233 1
204 231 234 1
205 235 236 1
206 235 237 2
207 235 238 1
208 238 239 1
209 238 240 1
210 238 241 1
211 242 243 1
212 242 244 2
213 242 245 1
214 245 246 1
215 245 247 1
216 245 248 1
217 249 250 1
218 249 251 2
219 249 252 1
220 252 253 1
221 252 254 1
222 252 255 1
223 256 257 1
224 256 258 2
225 256 259 1
226 259 260 1
227 259 261 1
228 259 262 1
229 263 264 1
230 263 265 2
231 263 266 1
232 266 267 1
233 266 268 1
234 266 269 1
235 270 271 1
236 270 272 2
237 270 273 1
238 273 274 1
239 273 275 1
240 273 276 1
241 277 278 1
242 277 279 2
243 277 280 1
244 280 281 1
245 280 282 1
246 280 283 1
247 284 285 1
248 284 286 2
249 284 287 1
250 287 288 1
251 287 289 1
252 287 290 1
253 291 292 1
254 291 293 2
255 291 294 1
256 294 295 1
257 294 296 1
258 294 297 1
259 298 299 1
260 298 300 2
261 298 301 1
262 301 302 1
263 301 303 1
264 301 304 1
265 305 306 1
266 305 307 2
267 305 308 1
268 308 309 1
269 308 310 1
270 308 311 1
271 312 313 1
272 312 314 2
273 312 315 1
274 315 316 1
275 315 317 1
276 315 318 1
277 319 320 1
278 319 321 2
279 319 322 1
280 322 323 1
281 322 324 1
282 322 325 1
283 326 327 1
284 326 328 2
285 326 329 1
286 329 330 1
287 329 331 1
288 329 332 1
289 333 334 1
290 333 335 2
291 333 336 1
292 336 337 1
293 336 338 1
294 336 339 1
295 340 341 1
296 340 342 2
297 340 343 1
298 343 344 1
299 343 345 1
300 343 346 1
301 347 348 1
302 347 349 2
303 347 350 1
304 350 351 1
305 350 352 1
306 350 353 1
307 354 355 1
308 354 356 2
309 354 357 1
310 357 358 1
311 357 359 1
312 357 360 1
313 361 362 1
314 361 363 2
315 361 364 1
316 364 365 1
317 364 366 1
318 364 367 1
319 368 369 1
320 368 370 2
321 368 371 1
322 371 372 1
323 371 373 1
324 371 374 1
