@<TRIPOS>MOLECULE
Molecule Name
339 294
SMALL
NO_CHARGES

@<TRIPOS>ATOM
1 C1	0.0000	0.0000	0.0000 C
2 O2	-1.2312	0.0000	0.0000 O
3 O3	0.7396	1.1696	0.0000 O
4 H4	0.1448	1.9512	-0.0088 H
5 N5	0.2533	-2.4539	0.3298 N
6 C6	-0.7252	-3.9964	1.9074 C
7 H7	-1.0814	-4.6743	1.1424 H
8 H8	-0.9318	-4.2711	2.9337 H
9 C9	-0.0565	-2.8520	1.6330 C
10 C10	0.4177	-1.9387	2.7424 C
11 H11	-0.0141	-0.9338	2.6552 H
12 H12	0.1200	-2.3449	3.7112 H
13 H13	1.5104	-1.8317	2.7458 H
14 C14	0.2371	-2.3792	-2.0519 C
15 C15	-0.1851	-3.2349	-0.8393 C
16 C16	0.9229	-1.2153	-0.0405 C
17 C17	1.3739	-1.4898	-1.5036 C
18 H18	0.5576	-2.9896	-2.9010 H
19 H19	-0.6013	-1.7564	-2.3826 H
20 H20	0.3020	-4.2217	-0.8369 H
21 H21	-1.2696	-3.4011	-0.8103 H
22 H22	1.7829	-0.9970	0.5987 H
23 H23	1.5272	-0.5703	-2.0745 H
24 H24	2.3212	-2.0394	-1.4772 H
25 C25	-3.1364	3.1855	0.4769 C
26 H26	-3.4006	3.0100	-0.5832 H
27 O27	-1.9991	3.5653	0.7775 O
28 C28	-4.2374	2.9307	1.4679 C
29 H29	-4.5814	1.8907	1.3910 H
30 H30	-3.8902	3.1283	2.4843 H
31 H31	-5.1027	3.5682	1.2430 H
32 C32	-2.1801	3.5787	2.0731 C
33 H33	-2.1517	4.4412	2.7659 H
34 O34	-1.8680	3.7267	0.8862 O
35 C35	-2.6127	2.2746	2.6823 C
36 H36	-3.6183	2.3739	3.1123 H
37 H37	-2.6114	1.4824	1.9306 H
38 H38	-1.9410	2.0019	3.5071 H
39 C39	-2.3653	4.4842	0.3941 C
40 H40	-2.2435	4.1241	1.4334 H
41 O41	-1.6107	4.0757	-0.4957 O
42 C42	-3.4803	5.4685	0.1778 C
43 H43	-3.3293	6.3547	0.8087 H
44 H44	-3.5274	5.7684	-0.8712 H
45 H45	-4.4389	5.0252	0.4784 H
46 C46	-1.7803	5.2653	-0.2628 C
47 H47	-1.5293	5.4003	-1.3321 H
48 O48	-1.3865	4.2632	0.3445 O
49 C49	-2.6048	6.3620	0.3508 C
50 H50	-3.5544	6.4685	-0.1906 H
51 H51	-2.8042	6.1474	1.4028 H
52 H52	-2.0805	7.3228	0.2629 H
53 C53	-0.8427	4.9192	1.4679 C
54 H54	-1.2388	4.1263	2.1304 H
55 O55	-0.5174	4.6507	0.3059 O
56 C56	-0.7427	6.2862	2.0846 C
57 H57	-0.0940	6.2544	2.9701 H
58 H58	-0.3442	7.0028	1.3632 H
59 H59	-1.7313	6.6189	2.4278 H
60 C60	-2.2446	4.1421	-2.0482 C
61 H61	-3.0085	4.3175	-1.2670 H
62 O62	-1.1113	3.7627	-1.7327 O
63 C63	-2.6938	4.3966	-3.4598 C
64 H64	-3.0299	5.4366	-3.5674 H
65 H65	-1.8805	4.1992	-4.1613 H
66 H66	-3.5540	3.7589	-3.7031 H
67 C67	0.1620	4.0111	2.9141 C
68 H68	-0.0951	4.8950	3.5283 H
69 O69	0.4055	4.1432	1.7094 O
70 C70	0.1857	2.6994	3.6475 C
71 H71	-0.7956	2.5017	4.0993 H
72 H72	0.4473	1.8859	2.9675 H
73 H73	0.9112	2.7402	4.4708 H
74 C74	-2.1656	4.4213	1.9101 C
75 H75	-2.9774	4.8137	1.2686 H
76 O76	-1.1154	4.0141	1.4010 O
77 C77	-2.4473	4.4302	3.3865 C
78 H78	-3.3439	3.8343	3.6034 H
79 H79	-1.5964	4.0280	3.9404 H
80 H80	-2.6575	5.4535	3.7247 H
81 C81	-1.3749	4.5585	-1.8495 C
82 H82	-0.5988	4.3781	-2.6175 H
83 O83	-1.1230	4.3612	-0.6555 O
84 C84	-2.6991	5.0424	-2.3704 C
85 H85	-3.1140	4.3151	-3.0810 H
86 H86	-3.4014	5.1936	-1.5478 H
87 H87	-2.5673	5.9834	-2.9208 H
88 C88	0.6294	5.6346	0.3716 C
89 H89	0.2503	5.5012	1.4027 H
90 O90	0.7133	4.6632	-0.3883 O
91 C91	1.0135	7.0397	0.0011 C
92 H92	1.7936	7.4093	0.6799 H
93 H93	1.3746	7.0783	-1.0288 H
94 H94	0.1508	7.7094	0.1151 H
95 C95	-2.4797	3.6348	1.9611 C
96 H96	-3.5449	3.3552	2.0693 H
97 O97	-1.9422	3.6089	0.8483 O
98 C98	-1.7829	4.0296	3.2330 C
99 H99	-1.8264	3.2063	3.9585 H
100 H100	-0.7409	4.2885	3.0335 H
101 H101	-2.2942	4.8853	3.6937 H
102 C102	0.4619	3.8342	2.6766 C
103 H103	1.4759	3.4037	2.5727 H
104 O104	-0.1775	4.1638	1.6713 O
105 C105	-0.0396	3.9734	4.0867 C
106 H106	0.6404	4.6103	4.6681 H
107 H107	-1.0430	4.4044	4.0948 H
108 H108	-0.0551	2.9927	4.5804 H
109 C109	0.6487	5.2016	1.2687 C
110 H110	-0.0571	4.9361	2.0786 H
111 O111	0.5033	4.7231	0.1383 O
112 C112	1.7468	6.1525	1.6546 C
113 H113	2.3431	5.7284	2.4735 H
114 H114	2.3928	6.3582	0.7985 H
115 H115	1.3186	7.0922	2.0282 H
116 C116	-1.5083	1.9407	-2.8432 C
117 H117	-1.9658	2.0645	-1.8432 H
118 O118	-0.5205	1.2117	-2.9868 O
119 C119	-2.1695	2.7056	-3.9554 C
120 H120	-2.1629	3.7804	-3.7304 H
121 H121	-1.6551	2.5254	-4.9017 H
122 H122	-3.2225	2.4071	-4.0449 H
123 C123	-3.4402	2.3993	1.0745 C
124 H124	-3.3454	1.8270	0.1321 H
125 O125	-3.1771	3.6069	1.0954 O
126 C126	-3.8965	1.6077	2.2679 C
127 H127	-3.1989	0.7822	2.4626 H
128 H128	-3.9618	2.2488	3.1496 H
129 H129	-4.8763	1.1541	2.0679 H
130 C130	1.3078	5.1652	-1.2322 C
131 H131	1.4255	5.6096	-0.2256 H
132 O132	0.4152	4.3365	-1.4433 O
133 C133	2.2880	5.6414	-2.2673 C
134 H134	3.3149	5.4290	-1.9409 H
135 H135	2.0992	5.1534	-3.2258 H
136 H136	2.2123	6.7304	-2.3863 H
137 C137	-0.2136	4.7280	-2.9007 C
138 H138	-0.5341	5.7544	-2.6392 H
139 O139	-0.2278	3.8371	-2.0439 O
140 C140	0.2192	4.5298	-4.3263 C
141 H141	1.0582	5.1978	-4.5626 H
142 H142	0.5170	3.4927	-4.4948 H
143 H143	-0.5987	4.7946	-5.0095 H
144 C144	0.7067	3.9445	-3.0712 C
145 H145	0.9855	4.7589	-3.7667 H
146 O146	0.4680	4.1971	-1.8849 O
147 C147	0.6486	2.5698	-3.6762 C
148 H148	1.6239	2.3049	-4.1059 H
149 H149	0.3670	1.8319	-2.9220 H
150 H150	-0.0767	2.5504	-4.5005 H
151 C151	1.0129	4.7996	1.5527 C
152 H152	1.7800	4.8801	0.7593 H
153 O153	-0.1302	4.4209	1.2735 O
154 C154	1.4702	5.1760	2.9341 C
155 H155	1.8328	6.2126	2.9425 H
156 H156	0.6529	5.0673	3.6503 H
157 H157	2.3141	4.5427	3.2382 H
158 C158	-1.0719	3.2218	-3.2875 C
159 H159	-1.9812	3.1416	-3.9130 H
160 O160	-1.1714	3.3276	-2.0599 O
161 C161	0.2315	3.1915	-4.0353 C
162 H162	0.2688	4.0136	-4.7625 H
163 H163	1.0717	3.2756	-3.3428 H
164 H164	0.3169	2.2582	-4.6076 H
165 C165	1.3380	4.1699	-2.4111 C
166 H166	2.2348	3.5306	-2.5178 H
167 O167	0.8268	4.3397	-1.2985 O
168 C168	0.8256	4.7822	-3.6846 C
169 H169	0.5740	3.9948	-4.4075 H
170 H170	-0.0568	5.3943	-3.4865 H
171 H171	1.6068	5.3996	-4.1476 H
172 C172	2.7619	4.5588	0.0829 C
173 H173	2.6237	4.7332	1.1669 H
174 O174	1.8354	4.0991	-0.5940 O
175 C175	4.1165	4.9164	-0.4615 C
176 H176	4.8956	4.3423	0.0577 H
177 H177	4.1636	4.7131	-1.5334 H
178 H178	4.3293	5.9778	-0.2773 H
179 C179	5.0231	-2.2464	1.9680 C
180 H180	4.5787	-2.0659	2.9652 H
181 O181	4.3697	-2.0083	0.9460 O
182 C182	6.4274	-2.7820	1.9738 C
183 H183	6.4660	-3.7344	2.5193 H
184 H184	6.7847	-2.9293	0.9524 H
185 H185	7.0943	-2.0874	2.5016 H
186 C186	2.0630	2.6498	2.7118 C
187 H187	2.8260	2.0276	2.2065 H
188 O188	1.3482	3.4119	2.0512 O
189 C189	1.9823	2.4883	4.2039 C
190 H190	2.9498	2.7316	4.6629 H
191 H191	1.2066	3.1364	4.6172 H
192 H192	1.7644	1.4428	4.4593 H
193 C193	5.7147	-1.6058	0.7813 C
194 H194	6.0462	-1.4856	1.8302 H
195 O195	4.5086	-1.6300	0.5115 O
196 C196	6.8158	-1.7308	-0.2341 C
197 H197	7.4513	-2.5947	0.0024 H
198 H198	6.3996	-1.8450	-1.2373 H
199 H199	7.4620	-0.8436	-0.2014 H
200 C200	1.0774	3.6376	-2.5079 C
201 H201	0.2868	2.8813	-2.6739 H
202 O202	1.2400	4.1279	-1.3849 O
203 C203	1.8944	3.9945	-3.7179 C
204 H204	1.2428	4.3809	-4.5130 H
205 H205	2.6470	4.7438	-3.4636 H
206 H206	2.3865	3.0985	-4.1189 H
207 C207	0.8154	5.5292	-1.1793 C
208 H208	1.1435	6.1141	-0.2991 H
209 O209	1.0242	4.3118	-1.2272 O
210 C210	0.1258	6.3167	-2.2579 C
211 H211	0.7887	7.1098	-2.6287 H
212 H212	-0.1622	5.6629	-3.0838 H
213 H213	-0.7657	6.8129	-1.8518 H
214 C214	-5.0796	0.5870	-0.6070 C
215 H215	-5.5863	0.4985	0.3728 H
216 O216	-5.0206	1.6820	-1.1775 O
217 C217	-4.4986	-0.6878	-1.1515 C
218 H218	-5.2871	-1.4437	-1.2653 H
219 H219	-4.0202	-0.5082	-2.1166 H
220 H220	-3.7643	-1.0994	-0.4464 H
221 C221	-5.9925	-0.6715	-1.1016 C
222 H222	-6.4369	-0.4911	-0.1044 H
223 O223	-6.6459	-0.4334	-2.1236 O
224 C224	-4.5882	-1.2072	-1.0958 C
225 H225	-4.5496	-2.1596	-0.5504 H
226 H226	-4.2309	-1.3545	-2.1172 H
227 H227	-3.9213	-0.5126	-0.5681 H
228 C228	-2.3255	-5.3410	-3.7363 C
229 H229	-2.8959	-4.5135	-4.1994 H
230 O230	-1.2004	-5.1326	-3.2687 O
231 C231	-3.0148	-6.6767	-3.7302 C
232 H232	-3.2501	-6.9848	-4.7577 H
233 H233	-2.3829	-7.4308	-3.2564 H
234 H234	-3.9704	-6.6060	-3.1939 H
235 C235	-5.1489	0.6327	2.9152 C
236 H236	-4.8882	-0.0278	3.7640 H
237 O237	-5.8442	1.6374	3.1025 O
238 C238	-4.6041	0.2127	1.5788 C
239 H239	-4.9627	-0.7935	1.3241 H
240 H240	-4.9088	0.9183	0.8029 H
241 H241	-3.5081	0.1580	1.6181 H
242 C242	4.7595	-5.1258	-2.1446 C
243 H243	5.6042	-5.1153	-2.8595 H
244 O244	3.8994	-4.2391	-2.1885 O
245 C245	4.7576	-6.2645	-1.1635 C
246 H246	5.6809	-6.2522	-0.5690 H
247 H247	3.8929	-6.1960	-0.5001 H
248 H248	4.7376	-7.2235	-1.6981 H
249 C249	3.2789	-2.5122	-5.1499 C
250 H250	2.7729	-1.5723	-5.4416 H
251 O251	3.3315	-2.8443	-3.9604 O
252 C252	3.8672	-3.3074	-6.2815 C
253 H253	4.6043	-2.7017	-6.8255 H
254 H254	4.3441	-4.2143	-5.9040 H
255 H255	3.0832	-3.5752	-7.0023 H
256 C256	2.3737	-6.5158	0.7918 C
257 H257	1.9507	-6.3733	1.8044 H
258 O258	1.6234	-6.6015	-0.1868 O
259 C259	3.8732	-6.5915	0.7228 C
260 H260	4.2383	-7.4213	1.3427 H
261 H261	4.2018	-6.7320	-0.3091 H
262 H262	4.3168	-5.6731	1.1297 H
263 C263	-5.9175	-0.5953	-1.0904 C
264 H264	-6.2045	0.4647	-1.2275 H
265 O265	-6.6891	-1.4962	-1.4383 O
266 C266	-4.5670	-0.8241	-0.4716 C
267 H267	-4.5192	-0.3484	0.5171 H
268 H268	-4.3673	-1.8934	-0.3745 H
269 H269	-3.7860	-0.3570	-1.0861 H
270 C270	-1.3817	-2.9982	6.8889 C
271 H271	-1.5226	-1.9027	6.8214 H
272 O272	-0.6011	-3.5712	6.1206 O
273 C273	-2.1899	-3.6892	7.9512 C
274 H274	-3.2610	-3.5132	7.7851 H
275 H275	-1.9892	-4.7627	7.9465 H
276 H276	-1.9498	-3.2732	8.9387 H
277 C277	-5.6706	-1.7922	0.0426 C
278 H278	-5.8349	-2.4417	-0.8382 H
279 O279	-6.4786	-1.8004	0.9780 O
280 C280	-4.4326	-0.9411	-0.0043 C
281 H281	-4.4577	-0.2863	-0.8855 H
282 H282	-4.3505	-0.3356	0.9008 H
283 H283	-3.5420	-1.5754	-0.1061 H
284 C284	5.5911	-0.5162	0.0259 C
285 H285	5.9584	-1.5500	-0.1191 H
286 O286	4.3893	-0.2607	-0.1101 O
287 C287	6.6405	0.4977	0.3862 C
288 H288	7.4110	0.5377	-0.3954 H
289 H289	6.1913	1.4854	0.5097 H
290 H290	7.1466	0.2036	1.3152 H
291 C291	-2.7929	-6.7394	-2.3439 C
292 H292	-3.7961	-6.9417	-1.9229 H
293 O293	-2.2585	-5.6384	-2.1704 O
294 C294	-2.1724	-7.8746	-3.1090 C
295 H295	-2.8201	-8.1633	-3.9477 H
296 H296	-1.1885	-7.5885	-3.4867 H
297 H297	-2.0775	-8.7578	-2.4634 H
298 C298	-0.1277	-5.5742	5.4119 C
299 H299	-1.2153	-5.7431	5.2970 H
300 O300	0.2980	-4.4491	5.6964 O
301 C301	0.7399	-6.7831	5.1997 C
302 H302	0.5829	-7.1880	4.1910 H
303 H303	1.7929	-6.5259	5.3323 H
304 H304	0.4618	-7.5762	5.9064 H
305 C305	0.2756	-7.9342	1.9293 C
306 H306	0.6497	-7.0643	1.3566 H
307 O307	0.7177	-9.0651	1.6978 O
308 C308	-0.7696	-7.6253	2.9643 C
309 H309	-1.6413	-7.1536	2.4915 H
310 H310	-1.0796	-8.5374	3.4786 H
311 H311	-0.3768	-6.9052	3.6944 H
312 C312	-5.2741	-4.6102	3.1074 C
313 H313	-5.9698	-3.8241	2.7570 H
314 O314	-5.2106	-4.8904	4.3097 O
315 C315	-4.4543	-5.2721	2.0356 C
316 H316	-3.8511	-4.5232	1.5051 H
317 H317	-3.7993	-6.0308	2.4691 H
318 H318	-5.1125	-5.7356	1.2889 H
319 C319	5.1004	2.6126	0.3120 C
320 H320	4.5524	3.1433	1.1136 H
321 O321	6.1688	3.0659	-0.1133 O
322 C322	4.4539	1.3504	-0.1861 C
323 H323	3.4497	1.5680	-0.5738 H
324 H324	5.0601	0.8949	-0.9720 H
325 H325	4.3271	0.6394	0.6410 H
326 C326	4.0965	2.9525	3.0459 C
327 H327	4.8299	2.4704	3.7200 H
328 O328	4.0528	4.1846	2.9572 O
329 C329	3.2027	2.0130	2.2859 C
330 H330	2.6326	1.3862	2.9846 H
331 H331	2.5143	2.5720	1.6486 H
332 H332	3.8061	1.3330	1.6701 H
333 C333	-5.0176	-6.6005	-0.9131 C
334 H334	-5.6646	-6.1263	-1.6754 H
335 O335	-5.0377	-7.8268	-0.7592 O
336 C336	-4.1546	-5.6582	-0.1216 C
337 H337	-4.7800	-4.9223	0.4013 H
338 H338	-3.5522	-6.2093	0.6037 H
339 H339	-3.4963	-5.0933	-0.7949 H
@<TRIPOS>BOND
1 1 2 2
2 1 3 1
3 1 16 1
4 3 4 1
5 5 9 1
6 5 15 1
7 5 16 1
8 6 7 1
9 6 8 1
10 6 9 2
11 9 10 1
12 10 11 1
13 10 12 1
14 10 13 1
15 14 15 1
16 14 17 1
17 14 18 1
18 14 19 1
19 15 20 1
20 15 21 1
21 16 17 1
22 16 22 1
23 17 23 1
24 17 24 1
25 25 26 1
26 25 27 2
27 25 28 1
28 28 29 1
29 28 30 1
30 28 31 1
31 32 33 1
32 32 34 2
33 32 35 1
34 35 36 1
35 35 37 1
36 35 38 1
37 39 40 1
38 39 41 2
39 39 42 1
40 42 43 1
41 42 44 1
42 42 45 1
43 46 47 1
44 46 48 2
45 46 49 1
46 49 50 1
47 49 51 1
48 49 52 1
49 53 54 1
50 53 55 2
51 53 56 1
52 56 57 1
53 56 58 1
54 56 59 1
55 60 61 1
56 60 62 2
57 60 63 1
58 63 64 1
59 63 65 1
60 63 66 1
61 67 68 1
62 67 69 2
63 67 70 1
64 70 71 1
65 70 72 1
66 70 73 1
67 74 75 1
68 74 76 2
69 74 77 1
70 77 78 1
71 77 79 1
72 77 80 1
73 81 82 1
74 81 83 2
75 81 84 1
76 84 85 1
77 84 86 1
78 84 87 1
79 88 89 1
80 88 90 2
81 88 91 1
82 91 92 1
83 91 93 1
84 91 94 1
85 95 96 1
86 95 97 2
87 95 98 1
88 98 99 1
89 98 100 1
90 98 101 1
91 102 103 1
92 102 104 2
93 102 105 1
94 105 106 1
95 105 107 1
96 105 108 1
97 109 110 1
98 109 111 2
99 109 112 1
100 112 113 1
101 112 114 1
102 112 115 1
103 116 117 1
104 116 118 2
105 116 119 1
106 119 120 1
107 119 121 1
108 119 122 1
109 123 124 1
110 123 125 2
111 123 126 1
112 126 127 1
113 126 128 1
114 126 129 1
115 130 131 1
116 130 132 2
117 130 133 1
118 133 134 1
119 133 135 1
120 133 136 1
121 137 138 1
122 137 139 2
123 137 140 1
124 140 141 1
125 140 142 1
126 140 143 1
127 144 145 1
128 144 146 2
129 144 147 1
130 147 148 1
131 147 149 1
132 147 150 1
133 151 152 1
134 151 153 2
135 151 154 1
136 154 155 1
137 154 156 1
138 154 157 1
139 158 159 1
140 158 160 2
141 158 161 1
142 161 162 1
143 161 163 1
144 161 164 1
145 165 166 1
146 165 167 2
147 165 168 1
148 168 169 1
149 168 170 1
150 168 171 1
151 172 173 1
152 172 174 2
153 172 175 1
154 175 176 1
155 175 177 1
156 175 178 1
157 179 180 1
158 179 181 2
159 179 182 1
160 182 183 1
161 182 184 1
162 182 185 1
163 186 187 1
164 186 188 2
165 186 189 1
166 189 190 1
167 189 191 1
168 189 192 1
169 193 194 1
170 193 195 2
171 193 196 1
172 196 197 1
173 196 198 1
174 196 199 1
175 200 201 1
176 200 202 2
177 200 203 1
178 203 204 1
179 203 205 1
180 203 206 1
181 207 208 1
182 207 209 2
183 207 210 1
184 210 211 1
185 210 212 1
186 210 213 1
187 214 215 1
188 214 216 2
189 214 217 1
190 217 218 1
191 217 219 1
192 217 220 1
193 221 222 1
194 221 223 2
195 221 224 1
196 224 225 1
197 224 226 1
198 224 227 1
199 228 229 1
200 228 230 2
201 228 231 1
202 231 232 1
203 231 233 1
204 231 234 1
205 235 236 1
206 235 237 2
207 235 238 1
208 238 239 1
209 238 240 1
210 238 241 1
211 242 243 1
212 242 244 2
213 242 245 1
214 245 246 1
215 245 247 1
216 245 248 1
217 249 250 1
218 249 251 2
219 249 252 1
220 252 253 1
221 252 254 1
222 252 255 1
223 256 257 1
224 256 258 2
225 256 259 1
226 259 260 1
227 259 261 1
228 259 262 1
229 263 264 1
230 263 265 2
231 263 266 1
232 266 267 1
233 266 268 1
234 266 269 1
235 270 271 1
236 270 272 2
237 270 273 1
238 273 274 1
239 273 275 1
240 273 276 1
241 277 278 1
242 277 279 2
243 277 280 1
244 280 281 1
245 280 282 1
246 280 283 1
247 284 285 1
248 284 286 2
249 284 287 1
250 287 288 1
251 287 289 1
252 287 290 1
253 291 292 1
254 291 293 2
255 291 294 1
256 294 295 1
257 294 296 1
258 294 297 1
259 298 299 1
260 298 300 2
261 298 301 1
262 301 302 1
263 301 303 1
264 301 304 1
265 305 306 1
266 305 307 2
267 305 308 1
268 308 309 1
269 308 310 1
270 308 311 1
271 312 313 1
272 312 314 2
273 312 315 1
274 315 316 1
275 315 317 1
276 315 318 1
277 319 320 1
278 319 321 2
279 319 322 1
280 322 323 1
281 322 324 1
282 322 325 1
283 326 327 1
284 326 328 2
285 326 329 1
286 329 330 1
287 329 331 1
288 329 332 1
289 333 334 1
290 333 335 2
291 333 336 1
292 336 337 1
293 336 338 1
294 336 339 1
