@<TRIPOS>MOLECULE
Molecule Name
374 324
SMALL
NO_CHARGES

@<TRIPOS>ATOM
1 C1	0.0000	0.0000	0.0000 C
2 O2	-1.2293	0.0000	0.0000 O
3 O3	0.7314	1.1569	0.0000 O
4 H4	1.6899	0.9074	-0.0283 H
5 N5	2.2776	-1.0181	-0.1223 N
6 C6	2.1005	-1.0107	-2.5522 C
7 H7	1.0179	-1.0072	-2.5617 H
8 H8	2.5871	-0.9697	-3.5184 H
9 C9	2.8433	-1.0258	-1.4257 C
10 C10	4.3542	-0.9790	-1.4743 C
11 H11	4.8090	-1.8616	-1.0082 H
12 H12	4.6938	-0.9350	-2.5110 H
13 H13	4.7456	-0.0961	-0.9525 H
14 C14	2.0037	-1.4736	2.1884 C
15 C15	3.0541	-1.4678	1.0681 C
16 C16	0.8316	-1.2920	0.0623 C
17 C17	0.7310	-1.9564	1.4635 C
18 H18	2.2902	-2.1216	3.0213 H
19 H19	1.8606	-0.4598	2.5813 H
20 H20	3.4638	-2.4785	0.9170 H
21 H21	3.8877	-0.7896	1.2686 H
22 H22	0.4494	-1.9638	-0.7142 H
23 H23	-0.1979	-1.6881	1.9716 H
24 H24	0.7508	-3.0461	1.3491 H
25 C25	-2.8461	-3.1587	-0.0903 C
26 H26	-3.2648	-3.4852	0.8806 H
27 O27	-1.7830	-3.6386	-0.4996 O
28 C28	-3.6530	-2.1271	-0.8277 C
29 H29	-3.7701	-1.2268	-0.2098 H
30 H30	-3.1682	-1.8648	-1.7705 H
31 H31	-4.6633	-2.5090	-1.0260 H
32 C32	0.2768	3.0510	2.6845 C
33 H33	0.3972	3.5881	1.7245 H
34 O34	1.1032	2.1969	3.0247 O
35 C35	-0.9276	3.4393	3.4956 C
36 H36	-1.8444	3.2689	2.9155 H
37 H37	-0.9668	2.8624	4.4220 H
38 H38	-0.8954	4.5117	3.7296 H
39 C39	-0.7399	2.0865	3.1641 C
40 H40	0.0452	2.7942	2.8362 H
41 O41	-0.5656	0.8686	3.0444 O
42 C42	-1.9772	2.7158	3.7403 C
43 H43	-2.4379	3.3869	3.0031 H
44 H44	-2.6947	1.9474	4.0360 H
45 H45	-1.7169	3.3323	4.6109 H
46 C46	-0.5617	1.7849	4.0035 C
47 H47	-0.8007	1.9561	5.0703 H
48 O48	-0.5826	0.6392	3.5398 O
49 C49	-0.2257	3.0169	3.2109 C
50 H50	0.6390	3.5277	3.6554 H
51 H51	-0.0045	2.7558	2.1738 H
52 H52	-1.0634	3.7262	3.2424 H
53 C53	4.3369	3.6967	-0.9359 C
54 H54	3.7976	4.6454	-0.7525 H
55 O55	3.8221	2.6193	-0.6162 O
56 C56	5.6882	3.8357	-1.5791 C
57 H57	6.3411	4.4603	-0.9549 H
58 H58	6.1462	2.8547	-1.7223 H
59 H59	5.5948	4.3443	-2.5478 H
60 C60	-3.0388	1.3253	-2.5167 C
61 H61	-3.0091	0.2843	-2.1424 H
62 O62	-2.6744	1.5798	-3.6702 O
63 C63	-3.5398	2.3499	-1.5377 C
64 H64	-2.9112	2.3506	-0.6372 H
65 H65	-3.5354	3.3442	-1.9892 H
66 H66	-4.5577	2.0961	-1.2134 H
67 C67	-0.2767	3.0931	2.5797 C
68 H68	-0.6831	2.6432	3.5055 H
69 O69	0.9335	3.3258	2.4832 O
70 C70	-1.2862	3.3801	1.5038 C
71 H71	-2.0566	4.0653	1.8820 H
72 H72	-0.7998	3.8206	0.6309 H
73 H73	-1.8006	2.4548	1.2120 H
74 C74	-2.2646	-3.9068	0.1487 C
75 H75	-2.2458	-3.3959	1.1301 H
76 O76	-1.2156	-4.3305	-0.3495 O
77 C77	-3.6197	-4.0306	-0.4895 C
78 H78	-4.0597	-3.0353	-0.6375 H
79 H79	-3.5445	-4.5452	-1.4498 H
80 H80	-4.2999	-4.5825	0.1727 H
81 C81	-1.9184	3.4698	-2.0632 C
82 H82	-2.4549	2.5069	-2.1608 H
83 O83	-1.5271	4.0662	-3.0728 O
84 C84	-1.7204	3.9595	-0.6561 C
85 H85	-1.1570	3.2180	-0.0740 H
86 H86	-1.1850	4.9113	-0.6543 H
87 H87	-2.6916	4.0813	-0.1585 H
88 C88	1.5096	2.5927	3.9501 C
89 H89	0.5421	2.0776	3.7976 H
90 O90	2.5663	2.0311	3.6401 O
91 C91	1.4211	3.9720	4.5407 C
92 H92	0.9210	3.9330	5.5176 H
93 H93	2.4178	4.4033	4.6555 H
94 H94	0.8105	4.6196	3.8977 H
95 C95	-2.2658	2.8995	2.0659 C
96 H96	-1.5612	2.4268	1.3554 H
97 O97	-1.8453	3.4009	3.1146 O
98 C98	-3.7113	2.8750	1.6550 C
99 H99	-4.0460	1.8388	1.5128 H
100 H100	-4.3319	3.3608	2.4109 H
101 H101	-3.8383	3.3842	0.6904 H
102 C102	-2.2697	4.3145	-1.7354 C
103 H103	-1.4609	4.0389	-2.4385 H
104 O104	-3.1067	5.1656	-2.0564 O
105 C105	-2.2545	3.5915	-0.4177 C
106 H106	-1.3033	3.7716	0.1008 H
107 H107	-3.0837	3.9241	0.2103 H
108 H108	-2.3264	2.5080	-0.5807 H
109 C109	-2.4563	-2.3933	-3.0724 C
110 H110	-3.1591	-2.9001	-2.3841 H
111 O111	-1.2412	-2.6010	-2.9809 O
112 C112	-3.0883	-1.4738	-4.0795 C
113 H113	-3.6585	-0.6875	-3.5671 H
114 H114	-2.3246	-1.0192	-4.7141 H
115 H115	-3.8026	-2.0291	-4.7017 H
116 C116	-3.1482	-3.1053	1.0165 C
117 H117	-3.6534	-2.7153	0.1125 H
118 O118	-2.0015	-3.5602	0.9381 O
119 C119	-3.9492	-3.0327	2.2863 C
120 H120	-4.8858	-3.5951	2.1745 H
121 H121	-3.3760	-3.4368	3.1234 H
122 H122	-4.2278	-1.9919	2.4980 H
123 C123	5.8327	3.2882	0.3795 C
124 H124	6.9359	3.3175	0.2974 H
125 O125	5.2522	2.2098	0.5469 O
126 C126	5.1413	4.6185	0.2733 C
127 H127	5.3789	5.0918	-0.6887 H
128 H128	4.0601	4.4958	0.3650 H
129 H129	5.5037	5.2960	1.0578 H
130 C130	-1.7200	4.7344	0.8543 C
131 H131	-1.4624	5.3127	-0.0533 H
132 O132	-1.4916	5.2047	1.9744 O
133 C133	-2.3434	3.3891	0.6080 C
134 H134	-1.6672	2.7634	0.0102 H
135 H135	-2.5639	2.8909	1.5544 H
136 H136	-3.2678	3.5021	0.0262 H
137 C137	-0.8711	2.6581	3.9696 C
138 H138	-1.8332	3.0721	4.3266 H
139 O139	-0.2386	1.8636	4.6745 O
140 C140	-0.4281	3.1301	2.6131 C
141 H141	-0.3284	4.2237	2.6079 H
142 H142	0.5260	2.6732	2.3421 H
143 H143	-1.1857	2.8774	1.8594 H
144 C144	5.0259	1.0419	4.6698 C
145 H145	4.3393	1.6196	5.3175 H
146 O146	4.5921	0.4629	3.6675 O
147 C147	6.4650	1.0288	5.1032 C
148 H148	6.5508	0.6108	6.1151 H
149 H149	7.0677	0.4384	4.4098 H
150 H150	6.8546	2.0544	5.1499 H
151 C151	-3.5356	4.1884	1.0984 C
152 H152	-3.7001	3.9813	2.1730 H
153 O153	-3.3544	5.3484	0.7115 O
154 C154	-3.5528	2.9848	0.1984 C
155 H155	-4.5167	2.4651	0.2812 H
156 H156	-3.3831	3.2807	-0.8390 H
157 H157	-2.7796	2.2697	0.5095 H
158 C158	-3.7343	2.4100	2.7642 C
159 H159	-3.5954	1.3989	3.1919 H
160 O160	-4.1945	3.3204	3.4624 O
161 C161	-3.3302	2.5637	1.3247 C
162 H162	-3.9017	1.8681	0.6958 H
163 H163	-3.5004	3.5882	0.9872 H
164 H164	-2.2702	2.3054	1.2005 H
165 C165	-0.2796	1.6319	4.8272 C
166 H166	-0.0249	2.6538	4.4872 H
167 O167	0.5606	0.7279	4.7567 O
168 C168	-1.6752	1.4563	5.3568 C
169 H169	-2.4086	1.7302	4.5867 H
170 H170	-1.8386	0.4224	5.6682 H
171 H171	-1.8435	2.1291	6.2082 H
172 C172	3.7770	-5.6143	1.9622 C
173 H173	4.7289	-5.0568	1.8746 H
174 O174	2.7033	-5.0477	1.7298 O
175 C175	3.9072	-7.0550	2.3704 C
176 H176	4.4122	-7.1277	3.3429 H
177 H177	2.9236	-7.5254	2.4314 H
178 H178	4.5316	-7.5972	1.6478 H
179 C179	3.7365	-5.7387	2.5509 C
180 H180	3.4558	-6.1092	3.5551 H
181 O181	2.9447	-5.0457	1.9023 O
182 C182	5.1047	-6.1383	2.0740 C
183 H183	5.1906	-7.2328	2.0477 H
184 H184	5.2969	-5.7309	1.0792 H
185 H185	5.8692	-5.7772	2.7748 H
186 C186	5.2084	0.8723	4.5430 C
187 H187	5.0228	0.0264	5.2320 H
188 O188	4.8971	0.7798	3.3503 O
189 C189	5.8435	2.0845	5.1644 C
190 H190	6.8102	1.8169	5.6115 H
191 H191	5.9891	2.8660	4.4158 H
192 H192	5.2127	2.4659	5.9784 H
193 C193	-2.9801	-3.6734	-1.2635 C
194 H194	-2.3976	-3.7500	-2.2012 H
195 O195	-2.8938	-4.5597	-0.4061 O
196 C196	-3.8436	-2.4496	-1.1375 C
197 H197	-4.5630	-2.4081	-1.9662 H
198 H198	-4.3798	-2.4564	-0.1861 H
199 H199	-3.2271	-1.5436	-1.2073 H
200 C200	4.0916	1.6194	4.2408 C
201 H201	4.7796	2.3289	3.7429 H
202 O202	4.1309	0.4166	3.9586 O
203 C203	3.1512	2.2272	5.2434 C
204 H204	2.5287	2.9929	4.7613 H
205 H205	2.5124	1.4585	5.6834 H
206 H206	3.7191	2.7331	6.0354 H
207 C207	-5.3083	1.1182	-1.6984 C
208 H208	-5.9336	0.4734	-1.0521 H
209 O209	-5.4490	1.0876	-2.9261 O
210 C210	-4.3203	1.9916	-0.9773 C
211 H211	-3.6351	1.3741	-0.3812 H
212 H212	-3.7490	2.5910	-1.6893 H
213 H213	-4.8437	2.6531	-0.2743 H
214 C214	4.0472	-6.1213	2.4992 C
215 H215	3.6855	-6.9899	1.9167 H
216 O216	3.7444	-4.9738	2.1535 O
217 C217	4.8997	-6.4529	3.6918 C
218 H218	5.7861	-7.0194	3.3766 H
219 H219	5.2105	-5.5405	4.2052 H
220 H220	4.3432	-7.0961	4.3865 H
221 C221	-4.3803	3.6056	-0.2204 C
222 H222	-4.3419	4.0611	-1.2281 H
223 O223	-5.2969	3.8961	0.5565 O
224 C224	-3.2672	2.6473	0.0984 C
225 H225	-2.2966	3.1538	0.0122 H
226 H226	-3.3842	2.2475	1.1079 H
227 H227	-3.2597	1.8225	-0.6266 H
228 C228	-1.8016	3.8516	3.0427 C
229 H229	-1.7991	3.0248	3.7782 H
230 O230	-2.1899	4.9767	3.3765 O
231 C231	-1.3122	3.4944	1.6673 C
232 H232	-1.9269	2.6880	1.2454 H
233 H233	-1.3487	4.3659	1.0102 H
234 H234	-0.2833	3.1143	1.7194 H
235 C235	1.5442	3.2526	-2.5829 C
236 H236	1.7137	2.6720	-3.5096 H
237 O237	2.3100	3.1225	-1.6213 O
238 C238	0.3532	4.1691	-2.6034 C
239 H239	-0.5628	3.5938	-2.7936 H
240 H240	0.2627	4.6998	-1.6533 H
241 H241	0.4482	4.8935	-3.4232 H
242 C242	-0.7104	-2.5366	5.5925 C
243 H243	-1.6890	-2.4669	5.0807 H
244 O244	0.3250	-2.6813	4.9329 O
245 C245	-0.7572	-2.4432	7.0919 C
246 H246	-1.3904	-3.2421	7.5004 H
247 H247	0.2481	-2.5209	7.5113 H
248 H248	-1.2119	-1.4913	7.3969 H
249 C249	2.9043	-3.8704	6.4143 C
250 H250	1.9304	-3.5884	6.8576 H
251 O251	3.2277	-3.4375	5.3024 O
252 C252	3.7547	-4.7845	7.2510 C
253 H253	3.2145	-5.7179	7.4586 H
254 H254	4.6927	-5.0094	6.7389 H
255 H255	3.9671	-4.3186	8.2224 H
256 C256	6.6996	-3.6856	1.5207 C
257 H257	5.8809	-4.4273	1.5857 H
258 O258	6.4621	-2.5316	1.1467 O
259 C259	8.0606	-4.1898	1.9111 C
260 H260	8.3455	-5.0386	1.2753 H
261 H261	8.8040	-3.3953	1.8175 H
262 H262	8.0440	-4.5598	2.9449 H
263 C263	-2.2906	3.6499	2.9304 C
264 H264	-3.2450	3.5317	2.3828 H
265 O265	-2.1845	4.5096	3.8123 O
266 C266	-1.1900	2.7120	2.5203 C
267 H267	-0.9650	2.8378	1.4528 H
268 H268	-0.2897	2.8982	3.1097 H
269 H269	-1.5112	1.6707	2.6560 H
270 C270	4.6848	-5.1225	4.2286 C
271 H271	4.2662	-5.7582	5.0318 H
272 O272	4.0198	-4.1878	3.7680 O
273 C273	6.0704	-5.4855	3.7732 C
274 H274	6.0880	-6.5202	3.4054 H
275 H275	6.4024	-4.8093	2.9826 H
276 H276	6.7702	-5.4376	4.6180 H
277 C277	0.7810	2.5223	3.0054 C
278 H278	-0.1977	2.5920	2.4936 H
279 O279	1.8163	2.3776	2.3457 O
280 C280	0.7341	2.6157	4.5048 C
281 H281	0.1009	1.8168	4.9132 H
282 H282	1.7394	2.5380	4.9242 H
283 H283	0.2794	3.5676	4.8098 H
284 C284	0.8767	2.9056	-3.1710 C
285 H285	0.4885	2.0058	-2.6569 H
286 O286	2.0953	3.0992	-3.2460 O
287 C287	-0.1669	3.8246	-3.7414 C
288 H288	-0.8377	4.1743	-2.9453 H
289 H289	0.3033	4.6817	-4.2281 H
290 H290	-0.7901	3.2844	-4.4664 H
291 C291	4.2786	-5.9639	0.2676 C
292 H292	4.3765	-5.7683	-0.8172 H
293 O293	4.5176	-5.0662	1.0832 O
294 C294	3.8488	-7.3559	0.6369 C
295 H295	4.5645	-8.0894	0.2420 H
296 H296	3.7784	-7.4591	1.7218 H
297 H297	2.8765	-7.5845	0.1806 H
298 C298	6.7149	0.1710	3.8970 C
299 H299	6.7331	0.7895	4.8145 H
300 O300	5.6450	-0.0464	3.3173 O
301 C301	8.0489	-0.3537	3.4449 C
302 H302	8.5014	-0.9665	4.2360 H
303 H303	7.9373	-0.9502	2.5370 H
304 H304	8.7383	0.4800	3.2565 H
305 C305	-5.6146	-2.2024	0.3189 C
306 H306	-6.1540	-1.2537	0.5023 H
307 O307	-6.1294	-3.2798	0.6386 O
308 C308	-4.2633	-2.0634	-0.3243 C
309 H309	-3.6104	-1.4388	0.2999 H
310 H310	-3.8053	-3.0444	-0.4675 H
311 H311	-4.3567	-1.5548	-1.2930 H
312 C312	-5.3698	-2.0192	1.6571 C
313 H313	-5.9425	-1.1580	1.2635 H
314 O314	-5.9317	-3.1045	1.8423 O
315 C315	-3.9155	-1.7568	1.9315 C
316 H316	-3.8097	-0.9416	2.6596 H
317 H317	-3.4305	-2.6569	2.3152 H
318 H318	-3.4111	-1.4287	1.0129 H
319 C319	3.1675	0.8877	5.6386 C
320 H320	2.1016	1.1788	5.6987 H
321 O321	3.5697	0.1998	4.6936 O
322 C322	4.0369	1.3835	6.7599 C
323 H323	3.6577	1.0157	7.7227 H
324 H324	5.0677	1.0510	6.6202 H
325 H325	4.0058	2.4802	6.8052 H
326 C326	-0.2152	-5.4833	4.2398 C
327 H327	-0.8804	-5.1256	5.0486 H
328 O328	0.4733	-4.6787	3.6022 O
329 C329	-0.2278	-6.9673	4.0018 C
330 H330	-1.2439	-7.3012	3.7527 H
331 H331	0.4542	-7.2302	3.1904 H
332 H332	0.0650	-7.4990	4.9169 H
333 C333	5.7047	3.4610	0.4630 C
334 H334	5.7412	4.4318	-0.0670 H
335 O335	5.0544	2.5215	-0.0086 O
336 C336	6.4825	3.3965	1.7475 C
337 H337	6.1174	4.1588	2.4487 H
338 H338	6.3911	2.4071	2.2005 H
339 H339	7.5411	3.6201	1.5595 H
340 C340	-3.9696	-1.8971	-0.6643 C
341 H341	-3.5639	-1.0030	-1.1748 H
342 O342	-3.2017	-2.7334	-0.1754 O
343 C343	-5.4690	-1.9934	-0.6239 C
344 H344	-5.8749	-1.9949	-1.6443 H
345 H345	-5.7798	-2.9021	-0.1039 H
346 H346	-5.8902	-1.1154	-0.1166 H
347 C347	-5.3404	1.8389	-0.2479 C
348 H348	-5.5749	1.6497	0.8169 H
349 O349	-5.4735	2.9737	-0.7196 O
350 C350	-4.8678	0.6440	-1.0277 C
351 H351	-5.6282	-0.1480	-1.0026 H
352 H352	-4.6604	0.9211	-2.0634 H
353 H353	-3.9614	0.2278	-0.5683 H
354 C354	3.6526	-5.2222	3.2257 C
355 H355	4.3381	-5.8309	2.6059 H
356 O356	2.5439	-4.8968	2.7864 O
357 C357	4.1720	-4.8471	4.5854 C
358 H358	5.1069	-4.2792	4.4889 H
359 H359	3.4339	-4.2502	5.1252 H
360 H360	4.4085	-5.7513	5.1618 H
361 C361	-1.5416	-5.1296	1.7022 C
362 H362	-1.9622	-5.1976	0.6809 H
363 O363	-0.3950	-5.5323	1.9283 O
364 C364	-2.4520	-4.5306	2.7373 C
365 H365	-3.3780	-5.1165	2.8101 H
366 H366	-1.9578	-4.5026	3.7108 H
367 H367	-2.7427	-3.5139	2.4415 H
368 C368	-1.0661	2.9667	-4.1073 C
369 H369	-1.6968	2.7386	-4.9875 H
370 O370	-0.9049	4.1382	-3.7472 O
371 C371	-0.4541	1.7756	-3.4248 C
372 H372	0.1725	1.2159	-4.1321 H
373 H373	0.1488	2.0921	-2.5711 H
374 H374	-1.2412	1.0887	-3.0865 H
@<TRIPOS>BOND
1 1 2 2
2 1 3 1
3 1 16 1
4 3 4 1
5 5 9 1
6 5 15 1
7 5 16 1
8 6 7 1
9 6 8 1
10 6 9 2
11 9 10 1
12 10 11 1
13 10 12 1
14 10 13 1
15 14 15 1
16 14 17 1
17 14 18 1
18 14 19 1
19 15 20 1
20 15 21 1
21 16 17 1
22 16 22 1
23 17 23 1
24 17 24 1
25 25 26 1
26 25 27 2
27 25 28 1
28 28 29 1
29 28 30 1
30 28 31 1
31 32 33 1
32 32 34 2
33 32 35 1
34 35 36 1
35 35 37 1
36 35 38 1
37 39 40 1
38 39 41 2
39 39 42 1
40 42 43 1
41 42 44 1
42 42 45 1
43 46 47 1
44 46 48 2
45 46 49 1
46 49 50 1
47 49 51 1
48 49 52 1
49 53 54 1
50 53 55 2
51 53 56 1
52 56 57 1
53 56 58 1
54 56 59 1
55 60 61 1
56 60 62 2
57 60 63 1
58 63 64 1
59 63 65 1
60 63 66 1
61 67 68 1
62 67 69 2
63 67 70 1
64 70 71 1
65 70 72 1
66 70 73 1
67 74 75 1
68 74 76 2
69 74 77 1
70 77 78 1
71 77 79 1
72 77 80 1
73 81 82 1
74 81 83 2
75 81 84 1
76 84 85 1
77 84 86 1
78 84 87 1
79 88 89 1
80 88 90 2
81 88 91 1
82 91 92 1
83 91 93 1
84 91 94 1
85 95 96 1
86 95 97 2
87 95 98 1
88 98 99 1
89 98 100 1
90 98 101 1
91 102 103 1
92 102 104 2
93 102 105 1
94 105 106 1
95 105 107 1
96 105 108 1
97 109 110 1
98 109 111 2
99 109 112 1
100 112 113 1
101 112 114 1
102 112 115 1
103 116 117 1
104 116 118 2
105 116 119 1
106 119 120 1
107 119 121 1
108 119 122 1
109 123 124 1
110 123 125 2
111 123 126 1
112 126 127 1
113 126 128 1
114 126 129 1
115 130 131 1
116 130 132 2
117 130 133 1
118 133 134 1
119 133 135 1
120 133 136 1
121 137 138 1
122 137 139 2
123 137 140 1
124 140 141 1
125 140 142 1
126 140 143 1
127 144 145 1
128 144 146 2
129 144 147 1
130 147 148 1
131 147 149 1
132 147 150 1
133 151 152 1
134 151 153 2
135 151 154 1
136 154 155 1
137 154 156 1
138 154 157 1
139 158 159 1
140 158 160 2
141 158 161 1
142 161 162 1
143 161 163 1
144 161 164 1
145 165 166 1
146 165 167 2
147 165 168 1
148 168 169 1
149 168 170 1
150 168 171 1
151 172 173 1
152 172 174 2
153 172 175 1
154 175 176 1
155 175 177 1
156 175 178 1
157 179 180 1
158 179 181 2
159 179 182 1
160 182 183 1
161 182 184 1
162 182 185 1
163 186 187 1
164 186 188 2
165 186 189 1
166 189 190 1
167 189 191 1
168 189 192 1
169 193 194 1
170 193 195 2
171 193 196 1
172 196 197 1
173 196 198 1
174 196 199 1
175 200 201 1
176 200 202 2
177 200 203 1
178 203 204 1
179 203 205 1
180 203 206 1
181 207 208 1
182 207 209 2
183 207 210 1
184 210 211 1
185 210 212 1
186 210 213 1
187 214 215 1
188 214 216 2
189 214 217 1
190 217 218 1
191 217 219 1
192 217 220 1
193 221 222 1
194 221 223 2
195 221 224 1
196 224 225 1
197 224 226 1
198 224 227 1
199 228 229 1
200 228 230 2
201 228 231 1
202 231 232 1
203 231 233 1
204 231 234 1
205 235 236 1
206 235 237 2
207 235 238 1
208 238 239 1
209 238 240 1
210 238 241 1
211 242 243 1
212 242 244 2
213 242 245 1
214 245 246 1
215 245 247 1
216 245 248 1
217 249 250 1
218 249 251 2
219 249 252 1
220 252 253 1
221 252 254 1
222 252 255 1
223 256 257 1
224 256 258 2
225 256 259 1
226 259 260 1
227 259 261 1
228 259 262 1
229 263 264 1
230 263 265 2
231 263 266 1
232 266 267 1
233 266 268 1
234 266 269 1
235 270 271 1
236 270 272 2
237 270 273 1
238 273 274 1
239 273 275 1
240 273 276 1
241 277 278 1
242 277 279 2
243 277 280 1
244 280 281 1
245 280 282 1
246 280 283 1
247 284 285 1
248 284 286 2
249 284 287 1
250 287 288 1
251 287 289 1
252 287 290 1
253 291 292 1
254 291 293 2
255 291 294 1
256 294 295 1
257 294 296 1
258 294 297 1
259 298 299 1
260 298 300 2
261 298 301 1
262 301 302 1
263 301 303 1
264 301 304 1
265 305 306 1
266 305 307 2
267 305 308 1
268 308 309 1
269 308 310 1
270 308 311 1
271 312 313 1
272 312 314 2
273 312 315 1
274 315 316 1
275 315 317 1
276 315 318 1
277 319 320 1
278 319 321 2
279 319 322 1
280 322 323 1
281 322 324 1
282 322 325 1
283 326 327 1
284 326 328 2
285 326 329 1
286 329 330 1
287 329 331 1
288 329 332 1
289 333 334 1
290 333 335 2
291 333 336 1
292 336 337 1
293 336 338 1
294 336 339 1
295 340 341 1
296 340 342 2
297 340 343 1
298 343 344 1
299 343 345 1
300 343 346 1
301 347 348 1
302 347 349 2
303 347 350 1
304 350 351 1
305 350 352 1
306 350 353 1
307 354 355 1
308 354 356 2
309 354 357 1
310 357 358 1
311 357 359 1
312 357 360 1
313 361 362 1
314 361 363 2
315 361 364 1
316 364 365 1
317 364 366 1
318 364 367 1
319 368 369 1
320 368 370 2
321 368 371 1
322 371 372 1
323 371 373 1
324 371 374 1
