@<TRIPOS>MOLECULE
Molecule Name
367 318
SMALL
NO_CHARGES

@<TRIPOS>ATOM
1 C1	0.0000	0.0000	0.0000 C
2 O2	-1.2337	0.0000	0.0000 O
3 O3	0.7329	1.1684	0.0000 O
4 H4	0.1296	1.9426	-0.0428 H
5 N5	2.0361	-1.2121	-0.8085 N
6 C6	0.7195	-1.4272	-2.8303 C
7 H7	-0.2356	-1.4022	-2.3211 H
8 H8	0.6887	-1.5308	-3.9073 H
9 C9	1.9122	-1.3268	-2.1957 C
10 C10	3.2134	-1.3358	-2.9678 C
11 H11	3.8815	-2.1382	-2.6304 H
12 H12	3.0164	-1.4844	-4.0314 H
13 H13	3.7569	-0.3891	-2.8552 H
14 C14	2.8720	-0.7560	1.3691 C
15 C15	3.3097	-1.0439	-0.0810 C
16 C16	0.8734	-1.2499	0.0687 C
17 C17	1.4909	-1.4348	1.4825 C
18 H18	3.5879	-1.1421	2.1009 H
19 H19	2.7718	0.3226	1.5214 H
20 H20	3.9223	-1.9567	-0.1375 H
21 H21	3.9016	-0.2186	-0.4917 H
22 H22	0.2101	-2.0829	-0.1917 H
23 H23	0.8667	-1.0118	2.2749 H
24 H24	1.5987	-2.5080	1.6771 H
25 C25	-1.6648	3.7351	2.8562 C
26 H26	-1.5705	3.6362	3.9543 H
27 O27	-0.6931	3.5054	2.1275 O
28 C28	-3.0199	4.1546	2.3592 C
29 H29	-3.2978	5.1241	2.7937 H
30 H30	-3.0221	4.2264	1.2696 H
31 H31	-3.7810	3.4323	2.6831 H
32 C32	-1.9000	-2.9542	2.4095 C
33 H33	-1.9457	-2.0724	1.7424 H
34 O34	-1.0797	-3.8532	2.1930 O
35 C35	-2.8816	-2.9548	3.5477 C
36 H36	-3.9079	-2.8978	3.1612 H
37 H37	-2.7663	-3.8574	4.1515 H
38 H38	-2.7304	-2.0678	4.1772 H
39 C39	-3.3940	2.4731	-0.1775 C
40 H40	-2.7134	2.7434	0.6521 H
41 O41	-3.2731	3.0172	-1.2808 O
42 C42	-4.4286	1.4327	0.1486 C
43 H43	-5.0578	1.7740	0.9815 H
44 H44	-5.0533	1.2283	-0.7235 H
45 H45	-3.9411	0.5059	0.4788 H
46 C46	-1.4968	2.0528	3.1450 C
47 H47	-2.3266	2.3110	2.4600 H
48 O48	-0.4088	1.6836	2.6891 O
49 C49	-1.8033	2.1869	4.6104 C
50 H50	-2.6526	1.5445	4.8788 H
51 H51	-0.9323	1.9133	5.2097 H
52 H52	-2.1008	3.2184	4.8410 H
53 C53	-2.4957	-1.7642	3.7762 C
54 H54	-2.9972	-1.3858	4.6871 H
55 O55	-1.4617	-2.4349	3.8713 O
56 C56	-3.1583	-1.4030	2.4764 C
57 H57	-3.2238	-0.3114	2.3765 H
58 H58	-2.5987	-1.8158	1.6343 H
59 H59	-4.1876	-1.7852	2.4583 H
60 C60	-3.0769	0.3261	3.6710 C
61 H61	-3.2203	1.2346	3.0556 H
62 O62	-2.6962	0.4252	4.8428 O
63 C63	-3.3744	-0.9754	2.9807 C
64 H64	-2.7380	-1.0859	2.0925 H
65 H65	-3.2071	-1.8148	3.6589 H
66 H66	-4.4145	-0.9870	2.6286 H
67 C67	2.5208	-6.0383	0.4861 C
68 H68	1.5656	-6.5017	0.7983 H
69 O69	2.8070	-4.8957	0.8611 O
70 C70	3.3940	-6.8881	-0.3940 C
71 H71	2.8546	-7.1603	-1.3111 H
72 H72	4.3111	-6.3544	-0.6521 H
73 H73	3.6447	-7.8272	0.1168 H
74 C74	-4.6860	2.9898	-1.0869 C
75 H75	-5.0549	2.5335	-2.0252 H
76 O76	-4.4988	4.2100	-1.0230 O
77 C77	-4.4462	2.0322	0.0465 C
78 H78	-3.7118	1.2717	-0.2508 H
79 H79	-4.0854	2.5660	0.9282 H
80 H80	-5.3736	1.4981	0.2922 H
81 C81	-4.4086	1.2729	-2.0404 C
82 H82	-3.8759	0.3310	-2.2718 H
83 O83	-4.9778	1.9002	-2.9407 O
84 C84	-4.3759	1.6964	-0.5986 C
85 H85	-3.3372	1.8254	-0.2665 H
86 H86	-4.9238	2.6312	-0.4622 H
87 H87	-4.8163	0.9147	0.0345 H
88 C88	-0.7785	-5.0788	0.6489 C
89 H89	-0.0810	-5.4953	-0.1025 H
90 O90	-0.3386	-4.5231	1.6617 O
91 C91	-2.2393	-5.2446	0.3366 C
92 H92	-2.4836	-6.3098	0.2279 H
93 H93	-2.8515	-4.8064	1.1276 H
94 H94	-2.4771	-4.7655	-0.6225 H
95 C95	-5.6085	-1.0462	0.9050 C
96 H96	-6.0797	-0.8920	-0.0844 H
97 O97	-6.1025	-0.5302	1.9138 O
98 C98	-4.3719	-1.9005	0.9056 C
99 H99	-3.6079	-1.4593	0.2517 H
100 H100	-3.9758	-1.9990	1.9185 H
101 H101	-4.6000	-2.8952	0.5001 H
102 C102	1.5080	-4.6555	-2.4041 C
103 H103	1.4862	-4.1627	-3.3946 H
104 O104	2.3525	-4.3229	-1.5648 O
105 C105	0.4649	-5.7156	-2.1867 C
106 H106	0.5680	-6.5070	-2.9412 H
107 H107	0.5599	-6.1463	-1.1877 H
108 H108	-0.5390	-5.2885	-2.3106 H
109 C109	-5.4771	-1.2256	0.3310 C
110 H110	-5.0579	-1.1823	1.3542 H
111 O111	-6.5984	-1.7098	0.1406 O
112 C112	-4.5969	-0.6674	-0.7519 C
113 H113	-3.6393	-1.2045	-0.7745 H
114 H114	-5.0874	-0.7505	-1.7240 H
115 H115	-4.3647	0.3856	-0.5444 H
116 C116	-5.0303	-1.6097	0.7030 C
117 H117	-5.2735	-1.7271	-0.3702 H
118 O118	-4.9744	-2.6020	1.4380 O
119 C119	-4.7863	-0.1986	1.1595 C
120 H120	-5.6714	0.4206	0.9615 H
121 H121	-4.5541	-0.1767	2.2263 H
122 H122	-3.9568	0.2437	0.5920 H
123 C123	5.1194	2.6593	-2.2645 C
124 H124	4.8078	2.5438	-3.3200 H
125 O125	5.5827	1.6945	-1.6459 O
126 C126	4.9349	4.0329	-1.6829 C
127 H127	3.8787	4.3283	-1.7397 H
128 H128	5.2669	4.0555	-0.6428 H
129 H129	5.5018	4.7697	-2.2674 H
130 C130	2.0484	-5.4182	-1.0675 C
131 H131	1.2493	-5.8037	-1.7289 H
132 O132	1.8209	-4.4693	-0.3087 O
133 C133	3.3714	-6.1234	-1.1740 C
134 H134	3.7498	-6.0628	-2.2032 H
135 H135	4.0973	-5.6798	-0.4893 H
136 H136	3.2504	-7.1902	-0.9432 H
137 C137	4.9412	-5.1179	-0.0251 C
138 H138	4.1382	-4.8686	0.6944 H
139 O139	5.4040	-4.2426	-0.7651 O
140 C140	5.3932	-6.5514	-0.0177 C
141 H141	4.5469	-7.2153	-0.2387 H
142 H142	6.1839	-6.7067	-0.7548 H
143 H143	5.7596	-6.8265	0.9802 H
144 C144	0.0011	-5.7059	1.5748 C
145 H145	-0.7064	-5.1269	2.1983 H
146 O146	0.9126	-5.1278	0.9724 O
147 C147	-0.2395	-7.1889	1.5323 C
148 H148	-1.2480	-7.3970	1.1504 H
149 H149	0.5017	-7.6784	0.8970 H
150 H150	-0.1917	-7.6085	2.5459 H
151 C151	7.5641	-1.2810	1.4422 C
152 H152	8.2901	-0.8091	2.1314 H
153 O153	6.3505	-1.1649	1.6460 O
154 C154	8.1644	-2.0393	0.2916 C
155 H155	8.8177	-2.8387	0.6661 H
156 H156	7.3793	-2.4695	-0.3338 H
157 H157	8.7939	-1.3726	-0.3126 H
158 C158	6.2563	2.2595	-1.4555 C
159 H159	5.5433	2.8191	-0.8207 H
160 O160	5.8581	1.3240	-2.1586 O
161 C161	7.6847	2.7220	-1.3851 C
162 H162	8.0530	2.6545	-0.3527 H
163 H163	8.3152	2.1169	-2.0400 H
164 H164	7.7545	3.7780	-1.6780 H
165 C165	5.3318	-2.7684	5.1163 C
166 H166	4.6321	-2.3599	5.8701 H
167 O167	5.0720	-2.6694	3.9118 O
168 C168	6.5669	-3.4228	5.6688 C
169 H169	6.2898	-4.2528	6.3324 H
170 H170	7.1972	-3.7953	4.8585 H
171 H171	7.1337	-2.7060	6.2777 H
172 C172	-0.3369	3.9516	2.8784 C
173 H173	-0.9296	4.4890	2.1139 H
174 O174	0.2613	2.9116	2.5806 O
175 C175	-0.3287	4.5755	4.2458 C
176 H176	-1.3540	4.6536	4.6313 H
177 H177	0.2777	3.9819	4.9331 H
178 H178	0.0684	5.5978	4.1919 H
179 C179	-2.9449	-1.5407	2.0279 C
180 H180	-3.5022	-1.3700	1.0872 H
181 O181	-1.7669	-1.9137	1.9914 O
182 C182	-3.7180	-1.2883	3.2918 C
183 H183	-4.6078	-1.9312	3.3249 H
184 H184	-3.0935	-1.4804	4.1668 H
185 H185	-4.0761	-0.2504	3.3146 H
186 C186	1.8082	-5.8953	3.0919 C
187 H187	0.9017	-5.6557	3.6796 H
188 O188	2.0862	-5.2349	2.0846 O
189 C189	2.6289	-7.0432	3.6093 C
190 H190	2.0199	-7.9564	3.6461 H
191 H191	3.4999	-7.2084	2.9716 H
192 H192	2.9572	-6.8396	4.6372 H
193 C193	7.2448	-3.6996	0.0995 C
194 H194	8.1223	-4.2025	-0.3495 H
195 O195	6.3775	-3.2008	-0.6265 O
196 C196	7.2092	-3.6814	1.6020 C
197 H197	8.1030	-3.1785	1.9948 H
198 H198	6.3132	-3.1680	1.9571 H
199 H199	7.2258	-4.7076	1.9925 H
200 C200	-1.8463	-3.9400	-0.8484 C
201 H201	-1.0912	-4.2380	-1.6004 H
202 O202	-1.6277	-4.1206	0.3547 O
203 C203	-3.1013	-3.3251	-1.4016 C
204 H204	-3.5931	-4.0252	-2.0901 H
205 H205	-3.7870	-3.0627	-0.5931 H
206 H206	-2.8567	-2.4270	-1.9842 H
207 C207	-1.8463	-3.9400	-0.8484 C
208 H208	-1.0912	-4.2380	-1.6004 H
209 O209	-1.6277	-4.1206	0.3547 O
210 C210	-3.1013	-3.3251	-1.4016 C
211 H211	-3.5931	-4.0252	-2.0901 H
212 H212	-3.7870	-3.0627	-0.5931 H
213 H213	-2.8567	-2.4270	-1.9842 H
214 C214	6.0259	-4.2111	1.8852 C
215 H215	5.6583	-5.2355	2.0856 H
216 O216	5.4274	-3.2355	2.3521 O
217 C217	7.2611	-4.1229	1.0333 C
218 H218	7.0820	-4.5959	0.0585 H
219 H219	7.5514	-3.0803	0.8877 H
220 H220	8.0856	-4.6732	1.5058 H
221 C221	1.2293	-5.5402	3.6145 C
222 H222	0.1940	-5.7305	3.2731 H
223 O223	2.0450	-5.0083	2.8530 O
224 C224	1.5345	-5.9687	5.0224 C
225 H225	1.3516	-7.0455	5.1374 H
226 H226	2.5731	-5.7438	5.2738 H
227 H227	0.8651	-5.4567	5.7264 H
228 C228	-1.1800	-3.5874	4.3609 C
229 H229	-2.1055	-3.5660	3.7546 H
230 O230	-0.2446	-2.8258	4.0908 O
231 C231	-1.1690	-4.5812	5.4883 C
232 H232	-1.3203	-5.5966	5.0981 H
233 H233	-0.2223	-4.5337	6.0306 H
234 H234	-1.9997	-4.3796	6.1776 H
235 C235	2.6080	-1.6637	5.5918 C
236 H236	2.0499	-0.7151	5.4762 H
237 O237	3.4735	-1.9779	4.7671 O
238 C238	2.2321	-2.4929	6.7877 C
239 H239	1.1654	-2.7511	6.7479 H
240 H240	2.8298	-3.4063	6.8227 H
241 H241	2.3845	-1.9165	7.7098 H
242 C242	7.5668	-1.1880	-0.2062 C
243 H243	7.3174	-2.2603	-0.3174 H
244 O244	6.6654	-0.3526	-0.0730 O
245 C245	9.0333	-0.8597	-0.2314 C
246 H246	9.4795	-1.1964	-1.1767 H
247 H247	9.1865	0.2154	-0.1156 H
248 H248	9.5540	-1.3955	0.5733 H
249 C249	-1.7307	-4.7447	-2.1002 C
250 H250	-1.6283	-5.5940	-2.8022 H
251 O251	-0.7756	-4.4079	-1.3915 O
252 C252	-3.0751	-4.0728	-2.0908 C
253 H253	-3.8581	-4.7983	-1.8328 H
254 H254	-3.0862	-3.2500	-1.3728 H
255 H255	-3.3138	-3.6917	-3.0926 H
256 C256	5.8393	2.7147	-1.6792 C
257 H257	6.0751	2.5544	-0.6099 H
258 O258	4.9333	2.0688	-2.2176 O
259 C259	6.6836	3.7418	-2.3800 C
260 H260	7.7439	3.4610	-2.3239 H
261 H261	6.3833	3.8345	-3.4259 H
262 H262	6.5867	4.7149	-1.8805 H
263 C263	1.8916	-4.6856	4.8802 C
264 H264	0.9264	-5.0906	5.2393 H
265 O265	2.0394	-4.4033	3.6859 O
266 C266	2.9535	-4.5194	5.9309 C
267 H267	3.1682	-5.4856	6.4068 H
268 H268	3.8677	-4.1162	5.4901 H
269 H269	2.5985	-3.8476	6.7236 H
270 C270	5.4859	-4.5883	-4.3853 C
271 H271	4.9503	-4.0077	-5.1604 H
272 O272	5.8029	-4.0519	-3.3177 O
273 C273	5.7769	-6.0204	-4.7367 C
274 H274	6.3839	-6.0691	-5.6506 H
275 H275	6.3048	-6.5151	-3.9186 H
276 H276	4.8414	-6.5548	-4.9488 H
277 C277	1.7006	-0.4800	-7.4643 C
278 H278	1.7544	0.5460	-7.8754 H
279 O279	2.6056	-0.9046	-6.7372 O
280 C280	0.4826	-1.2694	-7.8547 C
281 H281	0.4247	-1.3584	-8.9477 H
282 H282	0.5123	-2.2648	-7.4064 H
283 H283	-0.4266	-0.7457	-7.5307 H
284 C284	3.0917	-1.8289	5.3588 C
285 H285	4.0361	-1.4038	4.9689 H
286 O286	2.0913	-1.8838	4.6347 O
287 C287	3.1385	-2.3094	6.7822 C
288 H288	3.4187	-1.4841	7.4503 H
289 H289	2.1684	-2.7113	7.0821 H
290 H290	3.9093	-3.0835	6.8942 H
291 C291	5.1057	-0.9772	5.2428 C
292 H292	5.8289	-0.5199	4.5410 H
293 O293	3.9514	-1.2194	4.8726 O
294 C294	5.6341	-1.2617	6.6208 C
295 H295	5.9909	-0.3338	7.0874 H
296 H296	4.8569	-1.7102	7.2432 H
297 H297	6.4965	-1.9389	6.5621 H
298 C298	1.4698	5.1751	-1.0899 C
299 H299	1.8440	5.2992	-0.0559 H
300 O300	1.2250	4.0458	-1.5289 O
301 C301	1.2961	6.4472	-1.8712 C
302 H302	2.2525	6.9827	-1.9383 H
303 H303	0.9249	6.2315	-2.8753 H
304 H304	0.5946	7.1152	-1.3540 H
305 C305	1.6825	-4.9638	0.1999 C
306 H306	1.0929	-4.9210	-0.7355 H
307 O307	2.8460	-4.5469	0.2188 O
308 C308	0.9693	-5.5483	1.3869 C
309 H309	0.6447	-6.5737	1.1650 H
310 H310	1.6226	-5.5513	2.2620 H
311 H311	0.0624	-4.9691	1.6053 H
312 C312	1.6171	-2.8391	-7.5274 C
313 H313	0.9494	-2.9648	-8.4009 H
314 O314	1.2671	-2.1309	-6.5766 O
315 C315	2.9255	-3.5749	-7.6032 C
316 H316	3.4901	-3.2512	-8.4878 H
317 H317	3.5179	-3.3950	-6.7036 H
318 H318	2.7467	-4.6522	-7.7181 H
319 C319	2.1645	-6.2396	-2.0132 C
320 H320	1.9596	-7.1662	-2.5825 H
321 O321	3.3148	-5.9826	-1.6408 O
322 C322	0.9701	-5.3662	-1.7490 C
323 H323	0.2098	-5.9260	-1.1879 H
324 H324	1.2631	-4.4784	-1.1847 H
325 H325	0.5058	-5.0644	-2.6972 H
326 C326	1.5026	4.0582	-3.5436 C
327 H327	2.3033	4.7514	-3.2229 H
328 O328	0.4829	4.4980	-4.0865 O
329 C329	1.7601	2.6029	-3.2701 C
330 H330	1.9118	2.4420	-2.1944 H
331 H331	0.9224	1.9945	-3.6177 H
332 H332	2.6827	2.2818	-3.7717 H
333 C333	-0.4290	-6.0555	-3.1122 C
334 H334	0.5479	-6.5740	-3.0732 H
335 O335	-1.2864	-6.4096	-3.9291 O
336 C336	-0.6055	-4.9349	-2.1261 C
337 H337	0.1692	-4.1717	-2.2792 H
338 H338	-1.5934	-4.4823	-2.2347 H
339 H339	-0.4821	-5.3106	-1.1017 H
340 C340	-2.5688	-2.2275	4.4410 C
341 H341	-3.6356	-2.0741	4.1902 H
342 O342	-2.1541	-1.9605	5.5745 O
343 C343	-1.7140	-2.7649	3.3276 C
344 H344	-1.7463	-2.0856	2.4653 H
345 H345	-0.6814	-2.8847	3.6621 H
346 H346	-2.1053	-3.7317	2.9842 H
347 C347	-3.3883	-3.4942	2.8521 C
348 H348	-4.2617	-3.3514	2.1877 H
349 O349	-3.5096	-3.3527	4.0741 O
350 C350	-2.1040	-3.8586	2.1616 C
351 H351	-1.8314	-3.0805	1.4362 H
352 H352	-1.2994	-3.9796	2.8899 H
353 H353	-2.2314	-4.7901	1.5942 H
354 C354	-1.8897	1.9580	-5.8691 C
355 H355	-2.5153	2.8646	-5.9750 H
356 O356	-1.7360	1.1954	-6.8298 O
357 C357	-1.2749	1.7520	-4.5132 C
358 H358	-2.0601	1.6910	-3.7478 H
359 H359	-0.6771	0.8382	-4.4993 H
360 H360	-0.6427	2.6107	-4.2508 H
361 C361	2.2041	-6.3575	-1.0177 C
362 H362	1.3374	-6.6957	-1.6169 H
363 O363	3.1285	-7.1396	-0.7688 O
364 C364	2.1532	-4.9274	-0.5580 C
365 H365	1.2559	-4.7588	0.0523 H
366 H366	3.0442	-4.6808	0.0233 H
367 H367	2.0790	-4.2551	-1.4230 H
@<TRIPOS>BOND
1 1 2 2
2 1 3 1
3 1 16 1
4 3 4 1
5 5 9 1
6 5 15 1
7 5 16 1
8 6 7 1
9 6 8 1
10 6 9 2
11 9 10 1
12 10 11 1
13 10 12 1
14 10 13 1
15 14 15 1
16 14 17 1
17 14 18 1
18 14 19 1
19 15 20 1
20 15 21 1
21 16 17 1
22 16 22 1
23 17 23 1
24 17 24 1
25 25 26 1
26 25 27 2
27 25 28 1
28 28 29 1
29 28 30 1
30 28 31 1
31 32 33 1
32 32 34 2
33 32 35 1
34 35 36 1
35 35 37 1
36 35 38 1
37 39 40 1
38 39 41 2
39 39 42 1
40 42 43 1
41 42 44 1
42 42 45 1
43 46 47 1
44 46 48 2
45 46 49 1
46 49 50 1
47 49 51 1
48 49 52 1
49 53 54 1
50 53 55 2
51 53 56 1
52 56 57 1
53 56 58 1
54 56 59 1
55 60 61 1
56 60 62 2
57 60 63 1
58 63 64 1
59 63 65 1
60 63 66 1
61 67 68 1
62 67 69 2
63 67 70 1
64 70 71 1
65 70 72 1
66 70 73 1
67 74 75 1
68 74 76 2
69 74 77 1
70 77 78 1
71 77 79 1
72 77 80 1
73 81 82 1
74 81 83 2
75 81 84 1
76 84 85 1
77 84 86 1
78 84 87 1
79 88 89 1
80 88 90 2
81 88 91 1
82 91 92 1
83 91 93 1
84 91 94 1
85 95 96 1
86 95 97 2
87 95 98 1
88 98 99 1
89 98 100 1
90 98 101 1
91 102 103 1
92 102 104 2
93 102 105 1
94 105 106 1
95 105 107 1
96 105 108 1
97 109 110 1
98 109 111 2
99 109 112 1
100 112 113 1
101 112 114 1
102 112 115 1
103 116 117 1
104 116 118 2
105 116 119 1
106 119 120 1
107 119 121 1
108 119 122 1
109 123 124 1
110 123 125 2
111 123 126 1
112 126 127 1
113 126 128 1
114 126 129 1
115 130 131 1
116 130 132 2
117 130 133 1
118 133 134 1
119 133 135 1
120 133 136 1
121 137 138 1
122 137 139 2
123 137 140 1
124 140 141 1
125 140 142 1
126 140 143 1
127 144 145 1
128 144 146 2
129 144 147 1
130 147 148 1
131 147 149 1
132 147 150 1
133 151 152 1
134 151 153 2
135 151 154 1
136 154 155 1
137 154 156 1
138 154 157 1
139 158 159 1
140 158 160 2
141 158 161 1
142 161 162 1
143 161 163 1
144 161 164 1
145 165 166 1
146 165 167 2
147 165 168 1
148 168 169 1
149 168 170 1
150 168 171 1
151 172 173 1
152 172 174 2
153 172 175 1
154 175 176 1
155 175 177 1
156 175 178 1
157 179 180 1
158 179 181 2
159 179 182 1
160 182 183 1
161 182 184 1
162 182 185 1
163 186 187 1
164 186 188 2
165 186 189 1
166 189 190 1
167 189 191 1
168 189 192 1
169 193 194 1
170 193 195 2
171 193 196 1
172 196 197 1
173 196 198 1
174 196 199 1
175 200 201 1
176 200 202 2
177 200 203 1
178 203 204 1
179 203 205 1
180 203 206 1
181 207 208 1
182 207 209 2
183 207 210 1
184 210 211 1
185 210 212 1
186 210 213 1
187 214 215 1
188 214 216 2
189 214 217 1
190 217 218 1
191 217 219 1
192 217 220 1
193 221 222 1
194 221 223 2
195 221 224 1
196 224 225 1
197 224 226 1
198 224 227 1
199 228 229 1
200 228 230 2
201 228 231 1
202 231 232 1
203 231 233 1
204 231 234 1
205 235 236 1
206 235 237 2
207 235 238 1
208 238 239 1
209 238 240 1
210 238 241 1
211 242 243 1
212 242 244 2
213 242 245 1
214 245 246 1
215 245 247 1
216 245 248 1
217 249 250 1
218 249 251 2
219 249 252 1
220 252 253 1
221 252 254 1
222 252 255 1
223 256 257 1
224 256 258 2
225 256 259 1
226 259 260 1
227 259 261 1
228 259 262 1
229 263 264 1
230 263 265 2
231 263 266 1
232 266 267 1
233 266 268 1
234 266 269 1
235 270 271 1
236 270 272 2
237 270 273 1
238 273 274 1
239 273 275 1
240 273 276 1
241 277 278 1
242 277 279 2
243 277 280 1
244 280 281 1
245 280 282 1
246 280 283 1
247 284 285 1
248 284 286 2
249 284 287 1
250 287 288 1
251 287 289 1
252 287 290 1
253 291 292 1
254 291 293 2
255 291 294 1
256 294 295 1
257 294 296 1
258 294 297 1
259 298 299 1
260 298 300 2
261 298 301 1
262 301 302 1
263 301 303 1
264 301 304 1
265 305 306 1
266 305 307 2
267 305 308 1
268 308 309 1
269 308 310 1
270 308 311 1
271 312 313 1
272 312 314 2
273 312 315 1
274 315 316 1
275 315 317 1
276 315 318 1
277 319 320 1
278 319 321 2
279 319 322 1
280 322 323 1
281 322 324 1
282 322 325 1
283 326 327 1
284 326 328 2
285 326 329 1
286 329 330 1
287 329 331 1
288 329 332 1
289 333 334 1
290 333 335 2
291 333 336 1
292 336 337 1
293 336 338 1
294 336 339 1
295 340 341 1
296 340 342 2
297 340 343 1
298 343 344 1
299 343 345 1
300 343 346 1
301 347 348 1
302 347 349 2
303 347 350 1
304 350 351 1
305 350 352 1
306 350 353 1
307 354 355 1
308 354 356 2
309 354 357 1
310 357 358 1
311 357 359 1
312 357 360 1
313 361 362 1
314 361 363 2
315 361 364 1
316 364 365 1
317 364 366 1
318 364 367 1
