@<TRIPOS>MOLECULE
Molecule Name
374 324
SMALL
NO_CHARGES

@<TRIPOS>ATOM
1 C1	0.0000	0.0000	0.0000 C
2 O2	-1.2281	0.0000	0.0000 O
3 O3	0.7297	1.1614	0.0000 O
4 H4	1.6858	0.9286	-0.0953 H
5 N5	2.2198	-1.0761	-0.3871 N
6 C6	1.4702	-0.9736	-2.7013 C
7 H7	0.4189	-1.0543	-2.4558 H
8 H8	1.7074	-0.8412	-3.7493 H
9 C9	2.4612	-0.9972	-1.7855 C
10 C10	3.9133	-0.8607	-2.1874 C
11 H11	4.4788	-1.7871	-2.0251 H
12 H12	3.9863	-0.6133	-3.2485 H
13 H13	4.4140	-0.0690	-1.6161 H
14 C14	2.3608	-2.4576	1.5708 C
15 C15	3.2171	-1.6819	0.5504 C
16 C16	0.8395	-1.2761	0.1022 C
17 C17	1.0243	-1.6926	1.5851 C
18 H18	2.2018	-3.4852	1.2229 H
19 H19	2.8309	-2.5059	2.5574 H
20 H20	3.9084	-2.3410	0.0193 H
21 H21	3.8091	-0.8979	1.0392 H
22 H22	0.3188	-2.0631	-0.4593 H
23 H23	1.1011	-0.7985	2.2161 H
24 H24	0.1800	-2.2857	1.9425 H
25 C25	-3.2572	-3.1511	1.3196 C
26 H26	-3.3628	-2.1724	0.8141 H
27 O27	-2.1557	-3.7105	1.3630 O
28 C28	-4.5179	-3.7081	1.9191 C
29 H29	-5.2840	-3.8297	1.1416 H
30 H30	-4.3219	-4.6712	2.3950 H
31 H31	-4.9260	-3.0069	2.6591 H
32 C32	2.6673	4.3175	-0.9376 C
33 H33	1.5671	4.4338	-0.9145 H
34 O34	3.1790	3.2163	-0.7063 O
35 C35	3.4422	5.5641	-1.2610 C
36 H36	3.2179	6.3492	-0.5265 H
37 H37	4.5146	5.3581	-1.2622 H
38 H38	3.1398	5.9527	-2.2425 H
39 C39	3.6551	3.6083	1.2014 C
40 H40	2.6661	4.0880	1.3296 H
41 O41	3.8012	2.7007	0.3749 O
42 C42	4.7498	4.1389	2.0840 C
43 H43	4.4722	4.0242	3.1403 H
44 H44	5.6861	3.6109	1.8911 H
45 H45	4.8892	5.2138	1.9079 H
46 C46	4.2879	3.6561	0.4121 C
47 H47	4.1352	4.4316	1.1867 H
48 O48	3.8903	2.5015	0.6043 O
49 C49	4.9899	4.1172	-0.8343 C
50 H50	5.9806	4.5190	-0.5830 H
51 H51	5.0971	3.2912	-1.5405 H
52 H52	4.4266	4.9342	-1.3046 H
53 C53	-4.2590	0.4168	2.2725 C
54 H54	-4.2936	-0.4135	1.5418 H
55 O55	-4.4239	0.1901	3.4764 O
56 C56	-4.0048	1.7792	1.6908 C
57 H57	-4.7844	2.0286	0.9586 H
58 H58	-3.9870	2.5344	2.4795 H
59 H59	-3.0488	1.7869	1.1508 H
60 C60	1.0010	4.0329	-1.0620 C
61 H61	0.1006	3.5413	-1.4770 H
62 O62	2.1049	3.4844	-1.1549 O
63 C63	0.7659	5.3650	-0.4069 C
64 H64	0.0493	5.2587	0.4184 H
65 H65	1.7042	5.7756	-0.0279 H
66 H66	0.3201	6.0656	-1.1254 H
67 C67	-1.4368	3.3855	-1.9100 C
68 H68	-0.9847	2.3775	-1.8458 H
69 O69	-1.3668	4.0304	-2.9622 O
70 C70	-2.1109	3.8722	-0.6578 C
71 H71	-1.3931	3.8948	0.1730 H
72 H72	-2.5269	4.8702	-0.8108 H
73 H73	-2.9113	3.1793	-0.3662 H
74 C74	-3.3399	0.8187	-2.5564 C
75 H75	-3.0290	-0.1570	-2.1370 H
76 O76	-3.0429	1.1165	-3.7188 O
77 C77	-4.1192	1.7038	-1.6245 C
78 H78	-3.5288	1.9156	-0.7230 H
79 H79	-4.3833	2.6410	-2.1189 H
80 H80	-5.0320	1.1916	-1.2924 H
81 C81	-1.7491	4.4015	-1.7456 C
82 H82	-2.2352	3.7415	-2.4890 H
83 O83	-1.1697	5.4292	-2.1144 O
84 C84	-1.8551	3.9517	-0.3154 C
85 H85	-1.4096	2.9547	-0.1991 H
86 H86	-1.3501	4.6589	0.3461 H
87 H87	-2.9102	3.8632	-0.0246 H
88 C88	3.1041	0.3208	4.8364 C
89 H89	2.0029	0.4172	4.7855 H
90 O90	3.7211	-0.2295	3.9175 O
91 C91	3.7466	0.8943	6.0682 C
92 H92	3.3404	0.4101	6.9662 H
93 H93	4.8293	0.7558	6.0343 H
94 H94	3.5138	1.9641	6.1522 H
95 C95	-3.2836	-3.7319	1.1963 C
96 H96	-3.8316	-4.0915	0.3047 H
97 O97	-2.0514	-3.8185	1.2430 O
98 C98	-4.1376	-3.1565	2.2911 C
99 H99	-4.8605	-3.9062	2.6396 H
100 H100	-3.5170	-2.8283	3.1276 H
101 H101	-4.7206	-2.3081	1.9088 H
102 C102	-2.6947	4.6140	-0.0310 C
103 H103	-2.5814	4.8323	-1.1100 H
104 O104	-2.9456	5.5275	0.7631 O
105 C105	-2.5229	3.1724	0.3580 C
106 H106	-1.5267	2.8175	0.0618 H
107 H107	-2.6510	3.0493	1.4355 H
108 H108	-3.2529	2.5481	-0.1742 H
109 C109	-3.3600	2.9407	-2.6318 C
110 H110	-2.8176	2.2122	-3.2640 H
111 O111	-3.7276	4.0210	-3.1071 O
112 C112	-3.5959	2.5129	-1.2104 C
113 H113	-2.6380	2.3080	-0.7139 H
114 H114	-4.1349	3.2885	-0.6622 H
115 H115	-4.1708	1.5776	-1.1880 H
116 C116	-1.1887	2.1372	2.9758 C
117 H117	-0.3939	2.8838	3.1642 H
118 O118	-0.9339	0.9297	3.0462 O
119 C119	-2.5408	2.7029	2.6428 C
120 H120	-2.4755	3.3348	1.7470 H
121 H121	-3.2603	1.8991	2.4733 H
122 H122	-2.8924	3.3469	3.4599 H
123 C123	-4.7756	-0.4907	2.5115 C
124 H124	-4.6494	0.6076	2.5605 H
125 O125	-4.9118	-1.1459	3.5508 O
126 C126	-4.7660	-1.0811	1.1293 C
127 H127	-3.8202	-0.8439	0.6240 H
128 H128	-4.8960	-2.1644	1.1754 H
129 H129	-5.5682	-0.6385	0.5241 H
130 C130	1.9918	3.2937	2.0610 C
131 H131	0.9301	3.3305	1.7513 H
132 O132	2.8839	3.2211	1.2085 O
133 C133	2.2342	3.3380	3.5437 C
134 H134	1.7275	2.4964	4.0345 H
135 H135	3.3043	3.2974	3.7575 H
136 H136	1.8075	4.2562	3.9688 H
137 C137	-3.1558	2.3220	-3.0380 C
138 H138	-2.1161	2.6123	-2.7944 H
139 O139	-3.6174	2.5549	-4.1608 O
140 C140	-3.9161	1.6509	-1.9286 C
141 H141	-3.9641	2.3099	-1.0513 H
142 H142	-4.9275	1.4004	-2.2553 H
143 H143	-3.3940	0.7385	-1.6113 H
144 C144	-3.7587	2.9058	2.8954 C
145 H145	-3.8910	2.0476	3.5815 H
146 O146	-3.6348	4.0488	3.3495 O
147 C147	-3.7448	2.5663	1.4313 C
148 H148	-4.6841	2.0720	1.1494 H
149 H149	-3.6102	3.4686	0.8310 H
150 H150	-2.9358	1.8557	1.2162 H
151 C151	-0.5266	-5.9059	0.4047 C
152 H152	-1.2812	-6.3987	-0.2374 H
153 O153	-0.2468	-4.7147	0.2297 O
154 C154	0.0952	-6.7796	1.4579 C
155 H155	0.5866	-7.6432	0.9902 H
156 H156	0.8244	-6.2142	2.0420 H
157 H157	-0.6813	-7.1791	2.1237 H
158 C158	-2.5709	4.5753	0.8612 C
159 H159	-2.6313	5.0480	-0.1375 H
160 O160	-3.3784	4.8863	1.7439 O
161 C161	-1.4680	3.5688	1.0339 C
162 H162	-0.4943	4.0390	0.8421 H
163 H163	-1.4831	3.1549	2.0444 H
164 H164	-1.5783	2.7583	0.3013 H
165 C165	-5.0383	-2.5807	-1.2217 C
166 H166	-5.5756	-1.6797	-0.8692 H
167 O167	-5.5543	-3.6973	-1.0997 O
168 C168	-3.6883	-2.3300	-1.8329 C
169 H169	-3.0329	-1.8288	-1.1082 H
170 H170	-3.2324	-3.2699	-2.1514 H
171 H171	-3.7830	-1.6553	-2.6941 H
172 C172	-2.7638	3.2927	2.5016 C
173 H173	-3.5195	3.4992	1.7200 H
174 O174	-3.1185	2.8951	3.6170 O
175 C175	-1.3355	3.5299	2.0980 C
176 H176	-1.1993	4.5746	1.7881 H
177 H177	-0.6613	3.3018	2.9263 H
178 H178	-1.0795	2.9063	1.2312 H
179 C179	7.0098	1.2671	1.9976 C
180 H180	7.6978	0.6393	2.5951 H
181 O181	6.0290	0.7577	1.4439 O
182 C182	7.3637	2.7262	1.9266 C
183 H183	8.3666	2.8510	1.4969 H
184 H184	6.6345	3.2673	1.3199 H
185 H185	7.3957	3.1565	2.9363 H
186 C186	3.3760	3.4932	-2.8886 C
187 H187	2.6381	3.2422	-3.6742 H
188 O188	3.7977	2.6126	-2.1305 O
189 C189	3.7961	4.9352	-2.8337 C
190 H190	2.9207	5.5775	-2.6685 H
191 H191	4.5224	5.0916	-2.0333 H
192 H192	4.2343	5.2377	-3.7941 H
193 C193	6.5583	-4.4702	-3.0791 C
194 H194	7.1515	-3.6433	-3.5138 H
195 O195	5.7945	-4.2535	-2.1317 O
196 C196	6.7597	-5.8154	-3.7185 C
197 H197	7.8158	-6.1098	-3.6541 H
198 H198	6.1383	-6.5682	-3.2290 H
199 H199	6.5087	-5.7672	-4.7865 H
200 C200	5.0695	1.5826	3.8762 C
201 H201	4.2256	1.9924	4.4631 H
202 O202	4.8554	0.9965	2.8091 O
203 C203	6.4335	1.7958	4.4704 C
204 H204	6.4859	1.3406	5.4684 H
205 H205	7.2025	1.3615	3.8280 H
206 H206	6.6248	2.8691	4.6012 H
207 C207	5.7098	-1.9927	5.1720 C
208 H208	5.1453	-1.6550	6.0618 H
209 O209	5.1407	-2.0968	4.0797 O
210 C210	7.1628	-2.2978	5.4062 C
211 H211	7.2659	-3.0820	6.1681 H
212 H212	7.6396	-2.6222	4.4788 H
213 H213	7.6775	-1.4089	5.7946 H
214 C214	-4.6593	-1.6121	2.2323 C
215 H215	-5.5558	-1.1681	2.7052 H
216 O216	-3.9819	-2.4436	2.8470 O
217 C217	-4.3582	-1.1319	0.8402 C
218 H218	-4.2155	-0.0431	0.8390 H
219 H219	-3.4614	-1.6202	0.4530 H
220 H220	-5.2079	-1.3409	0.1767 H
221 C221	5.2108	0.8715	4.2033 C
222 H222	5.4404	0.0397	4.8960 H
223 O223	4.4420	0.6917	3.2522 O
224 C224	5.8891	2.1765	4.5134 C
225 H225	6.9795	2.0460	4.5078 H
226 H226	5.6066	2.9373	3.7827 H
227 H227	5.6156	2.5138	5.5220 H
228 C228	-0.2947	-4.8860	-2.5525 C
229 H229	-0.0532	-4.3282	-3.4773 H
230 O230	0.3272	-4.6553	-1.5094 O
231 C231	-1.3962	-5.9007	-2.6790 C
232 H232	-1.1380	-6.6448	-3.4443 H
233 H233	-1.5668	-6.4009	-1.7234 H
234 H234	-2.3225	-5.4131	-3.0109 H
235 C235	2.6576	-2.9622	6.2512 C
236 H236	1.6576	-2.4944	6.1760 H
237 O237	3.3489	-3.1132	5.2376 O
238 C238	3.0749	-3.3763	7.6344 C
239 H239	2.3533	-4.0936	8.0477 H
240 H240	4.0698	-3.8263	7.6150 H
241 H241	3.0763	-2.5065	8.3047 H
242 C242	6.6463	1.4711	1.1114 C
243 H243	6.2029	1.8669	0.1779 H
244 O244	6.1953	0.4402	1.6231 O
245 C245	7.7924	2.2667	1.6704 C
246 H246	7.4712	3.2960	1.8791 H
247 H247	8.1665	1.8059	2.5871 H
248 H248	8.6028	2.3312	0.9323 H
249 C249	-1.3386	3.2250	3.5855 C
250 H250	-1.1921	2.2014	3.9795 H
251 O251	-1.6772	4.1391	4.3456 O
252 C252	-1.0986	3.3902	2.1110 C
253 H253	-1.7671	2.7292	1.5433 H
254 H254	-1.2652	4.4268	1.8103 H
255 H255	-0.0716	3.0936	1.8600 H
256 C256	-3.0326	-0.5785	-3.4850 C
257 H257	-2.8716	0.5119	-3.3863 H
258 O258	-2.0739	-1.3301	-3.6948 O
259 C259	-4.4575	-1.0364	-3.3465 C
260 H260	-5.0859	-0.5494	-4.1042 H
261 H261	-4.5231	-2.1208	-3.4571 H
262 H262	-4.8557	-0.7404	-2.3669 H
263 C263	0.5361	-2.6715	5.6330 C
264 H264	1.3900	-2.4421	6.2984 H
265 O265	0.7328	-3.1931	4.5297 O
266 C266	-0.8189	-2.3065	6.1715 C
267 H267	-0.8615	-1.2309	6.3890 H
268 H268	-1.5987	-2.5669	5.4528 H
269 H269	-1.0015	-2.8290	7.1199 H
270 C270	6.9858	-1.2111	3.2944 C
271 H271	7.1787	-0.6683	4.2392 H
272 O272	5.8249	-1.4008	2.9146 O
273 C273	8.2091	-1.6732	2.5534 C
274 H274	8.8069	-2.3393	3.1898 H
275 H275	7.9264	-2.1966	1.6377 H
276 H276	8.8474	-0.8146	2.3058 H
277 C277	4.4527	-5.7115	-0.6877 C
278 H278	3.7636	-5.4760	-1.5209 H
279 O279	5.1717	-4.8271	-0.2092 O
280 C280	4.4326	-7.1385	-0.2163 C
281 H281	4.6879	-7.8133	-1.0442 H
282 H282	5.1394	-7.2802	0.6041 H
283 H283	3.4222	-7.4123	0.1156 H
284 C284	7.4229	-2.2887	0.1666 C
285 H285	7.6770	-1.2275	-0.0178 H
286 O286	6.6001	-2.8633	-0.5550 O
287 C287	8.1381	-2.9331	1.3209 C
288 H288	7.9257	-2.3864	2.2493 H
289 H289	7.8282	-3.9747	1.4291 H
290 H290	9.2242	-2.8853	1.1663 H
291 C291	2.4687	2.5601	-3.7725 C
292 H292	1.5455	1.9519	-3.8212 H
293 O293	3.1881	2.5153	-2.7683 O
294 C294	2.7510	3.4042	-4.9837 C
295 H295	1.9188	4.0981	-5.1626 H
296 H296	3.6766	3.9679	-4.8495 H
297 H297	2.8316	2.7693	-5.8760 H
298 C298	-3.8960	1.7857	3.4928 C
299 H299	-4.5423	2.4577	4.0889 H
300 O300	-3.4516	0.7472	3.9949 O
301 C301	-3.6230	2.2337	2.0843 C
302 H302	-3.1420	3.2209	2.0886 H
303 H303	-2.9804	1.5145	1.5722 H
304 H304	-4.5666	2.3433	1.5334 H
305 C305	6.6648	-2.9289	2.6626 C
306 H306	6.1462	-3.9043	2.5961 H
307 O307	6.1702	-1.9268	2.1344 O
308 C308	7.9636	-2.9380	3.4190 C
309 H309	8.6657	-3.6436	2.9552 H
310 H310	8.4039	-1.9388	3.4345 H
311 H311	7.7990	-3.2849	4.4478 H
312 C312	4.2203	-0.9896	5.0685 C
313 H313	3.9545	-2.0503	5.2384 H
314 O314	3.7086	-0.3646	4.1328 O
315 C315	5.2137	-0.4096	6.0359 C
316 H316	6.1495	-0.9836	6.0058 H
317 H317	5.4165	0.6360	5.7947 H
318 H318	4.8293	-0.4839	7.0618 H
319 C319	5.3482	-5.3280	-3.1890 C
320 H320	4.6606	-5.5368	-4.0306 H
321 O321	5.0287	-4.5145	-2.3149 O
322 C322	6.6436	-6.0900	-3.2088 C
323 H323	7.1944	-5.8744	-4.1341 H
324 H324	7.2572	-5.8233	-2.3457 H
325 H325	6.4464	-7.1702	-3.2018 H
326 C326	5.9454	-1.8776	4.5790 C
327 H327	6.2680	-0.8378	4.3809 H
328 O328	5.3910	-2.5344	3.6906 O
329 C329	6.2312	-2.3903	5.9627 C
330 H330	5.7392	-1.7538	6.7103 H
331 H331	5.8812	-3.4192	6.0691 H
332 H332	7.3091	-2.3441	6.1673 H
333 C333	4.3730	3.6956	-2.6577 C
334 H334	3.4883	4.3579	-2.6000 H
335 O335	4.4621	2.7142	-1.9114 O
336 C336	5.4050	4.0835	-3.6792 C
337 H337	5.7758	5.0969	-3.4754 H
338 H338	6.2387	3.3782	-3.6672 H
339 H339	4.9551	4.1061	-4.6807 H
340 C340	-3.2265	4.3667	0.8087 C
341 H341	-2.9249	5.3350	1.2516 H
342 O342	-4.4212	4.1245	0.6036 O
343 C343	-2.1012	3.4208	0.4958 C
344 H344	-1.5343	3.1934	1.4085 H
345 H345	-2.4884	2.4955	0.0640 H
346 H346	-1.3980	3.8895	-0.2055 H
347 C347	1.3046	-7.2437	1.6587 C
348 H348	0.4412	-7.4096	0.9866 H
349 O349	2.0383	-6.2626	1.4944 O
350 C350	1.4911	-8.2739	2.7371 C
351 H351	1.6187	-9.2691	2.2906 H
352 H352	2.3619	-8.0322	3.3502 H
353 H353	0.5958	-8.3234	3.3709 H
354 C354	-6.0011	0.0056	-0.5192 C
355 H355	-6.2557	-0.2230	0.5332 H
356 O356	-6.6652	0.8346	-1.1514 O
357 C357	-4.8289	-0.7503	-1.0792 C
358 H358	-5.0142	-1.8312	-1.0216 H
359 H359	-4.6498	-0.4634	-2.1176 H
360 H360	-3.9301	-0.5505	-0.4808 H
361 C361	-4.5095	1.4189	2.8137 C
362 H362	-4.3596	2.5116	2.7234 H
363 O363	-5.6344	0.9323	2.6531 O
364 C364	-3.2762	0.6219	3.1344 C
365 H365	-2.8406	0.9654	4.0822 H
366 H366	-3.5155	-0.4413	3.2044 H
367 H367	-2.5135	0.7784	2.3601 H
368 C368	-2.8838	1.5002	-4.5936 C
369 H369	-3.3149	0.4831	-4.6585 H
370 O370	-3.2921	2.3953	-5.3419 O
371 C371	-1.8077	1.6810	-3.5599 C
372 H372	-0.9756	0.9918	-3.7566 H
373 H373	-1.4414	2.7098	-3.5653 H
374 H374	-2.1960	1.4327	-2.5632 H
@<TRIPOS>BOND
1 1 2 2
2 1 3 1
3 1 16 1
4 3 4 1
5 5 9 1
6 5 15 1
7 5 16 1
8 6 7 1
9 6 8 1
10 6 9 2
11 9 10 1
12 10 11 1
13 10 12 1
14 10 13 1
15 14 15 1
16 14 17 1
17 14 18 1
18 14 19 1
19 15 20 1
20 15 21 1
21 16 17 1
22 16 22 1
23 17 23 1
24 17 24 1
25 25 26 1
26 25 27 2
27 25 28 1
28 28 29 1
29 28 30 1
30 28 31 1
31 32 33 1
32 32 34 2
33 32 35 1
34 35 36 1
35 35 37 1
36 35 38 1
37 39 40 1
38 39 41 2
39 39 42 1
40 42 43 1
41 42 44 1
42 42 45 1
43 46 47 1
44 46 48 2
45 46 49 1
46 49 50 1
47 49 51 1
48 49 52 1
49 53 54 1
50 53 55 2
51 53 56 1
52 56 57 1
53 56 58 1
54 56 59 1
55 60 61 1
56 60 62 2
57 60 63 1
58 63 64 1
59 63 65 1
60 63 66 1
61 67 68 1
62 67 69 2
63 67 70 1
64 70 71 1
65 70 72 1
66 70 73 1
67 74 75 1
68 74 76 2
69 74 77 1
70 77 78 1
71 77 79 1
72 77 80 1
73 81 82 1
74 81 83 2
75 81 84 1
76 84 85 1
77 84 86 1
78 84 87 1
79 88 89 1
80 88 90 2
81 88 91 1
82 91 92 1
83 91 93 1
84 91 94 1
85 95 96 1
86 95 97 2
87 95 98 1
88 98 99 1
89 98 100 1
90 98 101 1
91 102 103 1
92 102 104 2
93 102 105 1
94 105 106 1
95 105 107 1
96 105 108 1
97 109 110 1
98 109 111 2
99 109 112 1
100 112 113 1
101 112 114 1
102 112 115 1
103 116 117 1
104 116 118 2
105 116 119 1
106 119 120 1
107 119 121 1
108 119 122 1
109 123 124 1
110 123 125 2
111 123 126 1
112 126 127 1
113 126 128 1
114 126 129 1
115 130 131 1
116 130 132 2
117 130 133 1
118 133 134 1
119 133 135 1
120 133 136 1
121 137 138 1
122 137 139 2
123 137 140 1
124 140 141 1
125 140 142 1
126 140 143 1
127 144 145 1
128 144 146 2
129 144 147 1
130 147 148 1
131 147 149 1
132 147 150 1
133 151 152 1
134 151 153 2
135 151 154 1
136 154 155 1
137 154 156 1
138 154 157 1
139 158 159 1
140 158 160 2
141 158 161 1
142 161 162 1
143 161 163 1
144 161 164 1
145 165 166 1
146 165 167 2
147 165 168 1
148 168 169 1
149 168 170 1
150 168 171 1
151 172 173 1
152 172 174 2
153 172 175 1
154 175 176 1
155 175 177 1
156 175 178 1
157 179 180 1
158 179 181 2
159 179 182 1
160 182 183 1
161 182 184 1
162 182 185 1
163 186 187 1
164 186 188 2
165 186 189 1
166 189 190 1
167 189 191 1
168 189 192 1
169 193 194 1
170 193 195 2
171 193 196 1
172 196 197 1
173 196 198 1
174 196 199 1
175 200 201 1
176 200 202 2
177 200 203 1
178 203 204 1
179 203 205 1
180 203 206 1
181 207 208 1
182 207 209 2
183 207 210 1
184 210 211 1
185 210 212 1
186 210 213 1
187 214 215 1
188 214 216 2
189 214 217 1
190 217 218 1
191 217 219 1
192 217 220 1
193 221 222 1
194 221 223 2
195 221 224 1
196 224 225 1
197 224 226 1
198 224 227 1
199 228 229 1
200 228 230 2
201 228 231 1
202 231 232 1
203 231 233 1
204 231 234 1
205 235 236 1
206 235 237 2
207 235 238 1
208 238 239 1
209 238 240 1
210 238 241 1
211 242 243 1
212 242 244 2
213 242 245 1
214 245 246 1
215 245 247 1
216 245 248 1
217 249 250 1
218 249 251 2
219 249 252 1
220 252 253 1
221 252 254 1
222 252 255 1
223 256 257 1
224 256 258 2
225 256 259 1
226 259 260 1
227 259 261 1
228 259 262 1
229 263 264 1
230 263 265 2
231 263 266 1
232 266 267 1
233 266 268 1
234 266 269 1
235 270 271 1
236 270 272 2
237 270 273 1
238 273 274 1
239 273 275 1
240 273 276 1
241 277 278 1
242 277 279 2
243 277 280 1
244 280 281 1
245 280 282 1
246 280 283 1
247 284 285 1
248 284 286 2
249 284 287 1
250 287 288 1
251 287 289 1
252 287 290 1
253 291 292 1
254 291 293 2
255 291 294 1
256 294 295 1
257 294 296 1
258 294 297 1
259 298 299 1
260 298 300 2
261 298 301 1
262 301 302 1
263 301 303 1
264 301 304 1
265 305 306 1
266 305 307 2
267 305 308 1
268 308 309 1
269 308 310 1
270 308 311 1
271 312 313 1
272 312 314 2
273 312 315 1
274 315 316 1
275 315 317 1
276 315 318 1
277 319 320 1
278 319 321 2
279 319 322 1
280 322 323 1
281 322 324 1
282 322 325 1
283 326 327 1
284 326 328 2
285 326 329 1
286 329 330 1
287 329 331 1
288 329 332 1
289 333 334 1
290 333 335 2
291 333 336 1
292 336 337 1
293 336 338 1
294 336 339 1
295 340 341 1
296 340 342 2
297 340 343 1
298 343 344 1
299 343 345 1
300 343 346 1
301 347 348 1
302 347 349 2
303 347 350 1
304 350 351 1
305 350 352 1
306 350 353 1
307 354 355 1
308 354 356 2
309 354 357 1
310 357 358 1
311 357 359 1
312 357 360 1
313 361 362 1
314 361 363 2
315 361 364 1
316 364 365 1
317 364 366 1
318 364 367 1
319 368 369 1
320 368 370 2
321 368 371 1
322 371 372 1
323 371 373 1
324 371 374 1
