@<TRIPOS>MOLECULE
Molecule Name
374 324
SMALL
NO_CHARGES

@<TRIPOS>ATOM
1 C1	0.0000	0.0000	0.0000 C
2 O2	-1.2301	0.0000	0.0000 O
3 O3	0.6891	1.1844	0.0000 O
4 H4	1.6729	1.0834	-0.0443 H
5 N5	2.0209	-1.2116	0.8656 N
6 C6	3.4101	-0.0122	-0.7253 C
7 H7	2.6951	-0.0467	-1.5392 H
8 H8	4.3643	0.4456	-0.9488 H
9 C9	3.2134	-0.6098	0.4850 C
10 C10	4.3083	-0.6053	1.5299 C
11 H11	4.5965	-1.6261	1.8092 H
12 H12	5.1946	-0.0982	1.1450 H
13 H13	3.9912	-0.0923	2.4457 H
14 C14	0.3623	-2.4334	2.0593 C
15 C15	1.8408	-2.0013	2.1085 C
16 C16	0.8404	-1.2995	-0.0174 C
17 C17	0.0431	-2.4876	0.5506 C
18 H18	0.1976	-3.3897	2.5634 H
19 H19	-0.2714	-1.6829	2.5452 H
20 H20	2.5078	-2.8758	2.1117 H
21 H21	2.0654	-1.4032	2.9978 H
22 H22	1.1541	-1.4854	-1.0545 H
23 H23	-1.0213	-2.3870	0.3340 H
24 H24	0.4110	-3.4209	0.1099 H
25 C25	-2.5721	0.6886	3.1493 C
26 H26	-2.9388	-0.3553	3.1271 H
27 O27	-1.5889	0.9856	3.8371 O
28 C28	-3.3451	1.6630	2.3055 C
29 H29	-4.3965	1.6855	2.6220 H
30 H30	-2.9158	2.6638	2.3869 H
31 H31	-3.3371	1.3423	1.2553 H
32 C32	-0.7947	4.1197	-0.0705 C
33 H33	-1.2040	3.5899	-0.9516 H
34 O34	0.0844	4.9764	-0.2157 O
35 C35	-1.3804	3.7184	1.2543 C
36 H36	-1.2264	2.6446	1.4255 H
37 H37	-0.9207	4.2889	2.0640 H
38 H38	-2.4655	3.8868	1.2539 H
39 C39	-4.4584	1.5110	1.0496 C
40 H40	-4.5414	1.1206	0.0175 H
41 O41	-5.1421	1.0198	1.9548 O
42 C42	-3.4837	2.6396	1.2371 C
43 H43	-3.7589	3.4868	0.5949 H
44 H44	-3.4665	2.9605	2.2808 H
45 H45	-2.4773	2.3240	0.9314 H
46 C46	-2.6860	2.4227	2.9004 C
47 H47	-1.6296	2.2447	3.1780 H
48 O48	-3.5920	2.1249	3.6868 O
49 C49	-2.9037	3.0310	1.5433 C
50 H50	-2.4724	2.3855	0.7666 H
51 H51	-3.9700	3.1710	1.3538 H
52 H52	-2.3867	3.9974	1.4753 H
53 C53	-1.2409	4.3691	-1.8801 C
54 H54	-0.8204	4.9088	-1.0103 H
55 O55	-0.8482	4.6330	-3.0221 O
56 C56	-2.2835	3.3358	-1.5571 C
57 H57	-3.1269	3.8022	-1.0306 H
58 H58	-2.6412	2.8552	-2.4701 H
59 H59	-1.8671	2.5782	-0.8799 H
60 C60	-4.1347	1.1632	-0.1887 C
61 H61	-3.5579	1.5215	0.6850 H
62 O62	-5.0057	0.2981	-0.0439 O
63 C63	-3.7763	1.7971	-1.5036 C
64 H64	-2.7149	1.6266	-1.7280 H
65 H65	-4.3919	1.3862	-2.3065 H
66 H66	-3.9179	2.8847	-1.4495 H
67 C67	-0.9672	2.8370	-2.6170 C
68 H68	-0.4873	3.8289	-2.5150 H
69 O69	-0.5291	2.0175	-3.4322 O
70 C70	-2.1442	2.5928	-1.7148 C
71 H71	-2.9224	3.3459	-1.8971 H
72 H72	-2.5534	1.5942	-1.8820 H
73 H73	-1.8425	2.6969	-0.6641 H
74 C74	-1.3400	-1.1333	-4.0215 C
75 H75	-1.2596	-0.0481	-4.2225 H
76 O76	-0.5100	-1.6924	-3.2958 O
77 C77	-2.4970	-1.8288	-4.6823 C
78 H78	-2.4378	-1.7079	-5.7722 H
79 H79	-2.4988	-2.8914	-4.4304 H
80 H80	-3.4437	-1.3724	-4.3638 H
81 C81	-0.3966	3.6952	2.4365 C
82 H82	-0.3705	3.0124	3.3070 H
83 O83	0.5174	4.5084	2.2592 O
84 C84	-1.5899	3.5472	1.5347 C
85 H85	-2.5150	3.7153	2.1020 H
86 H86	-1.5333	4.2564	0.7062 H
87 H87	-1.6411	2.5233	1.1412 H
88 C88	-0.6248	3.2726	-2.6424 C
89 H89	0.1965	2.5817	-2.3727 H
90 O90	-0.3683	4.3891	-3.1066 O
91 C91	-2.0135	2.7501	-2.4025 C
92 H92	-2.1433	2.4959	-1.3420 H
93 H93	-2.7577	3.4937	-2.6954 H
94 H94	-2.1724	1.8247	-2.9719 H
95 C95	-5.0300	1.2463	-0.4070 C
96 H96	-4.8551	0.2741	-0.9057 H
97 O97	-5.9558	1.3698	0.4027 O
98 C98	-4.0818	2.3482	-0.7888 C
99 H99	-4.1297	2.5295	-1.8709 H
100 H100	-4.3268	3.2668	-0.2515 H
101 H101	-3.0487	2.0526	-0.5625 H
102 C102	0.3697	0.2290	-4.3118 C
103 H103	-0.5847	-0.1331	-3.8845 H
104 O104	1.4317	-0.3328	-4.0209 O
105 C105	0.2577	1.4106	-5.2340 C
106 H106	-0.2001	2.2585	-4.7073 H
107 H107	1.2427	1.6989	-5.6073 H
108 H108	-0.4010	1.1692	-6.0787 H
109 C109	-2.8686	4.2838	-1.3636 C
110 H110	-3.6186	3.6651	-1.8921 H
111 O111	-2.5602	5.3962	-1.8058 O
112 C112	-2.2889	3.6732	-0.1185 C
113 H113	-1.8051	2.7166	-0.3571 H
114 H114	-1.5615	4.3492	0.3358 H
115 H115	-3.0882	3.4531	0.6015 H
116 C116	0.6998	2.1897	2.9059 C
117 H117	1.6947	2.4137	2.4763 H
118 O118	0.3021	1.0212	2.9721 O
119 C119	-0.0835	3.3825	3.3781 C
120 H120	-0.2431	4.0824	2.5470 H
121 H121	-1.0474	3.0701	3.7852 H
122 H122	0.4828	3.9262	4.1459 H
123 C123	-0.9756	4.6513	0.6296 C
124 H124	-0.0352	4.5194	0.0616 H
125 O125	-1.3467	5.7832	0.9598 O
126 C126	-1.7221	3.3857	0.9461 C
127 H127	-1.0860	2.7085	1.5315 H
128 H128	-2.6331	3.6089	1.5056 H
129 H129	-1.9788	2.8568	0.0187 H
130 C130	-2.3020	0.9721	3.5311 C
131 H131	-2.5397	1.4919	2.5835 H
132 O132	-1.1332	0.6687	3.7953 O
133 C133	-3.4775	0.6844	4.4226 C
134 H134	-4.2111	0.0634	3.8913 H
135 H135	-3.1522	0.1725	5.3307 H
136 H136	-3.9875	1.6198	4.6886 H
137 C137	-3.5338	0.4216	2.6353 C
138 H138	-3.1662	1.4606	2.7350 H
139 O139	-2.7928	-0.5275	2.9149 O
140 C140	-4.9499	0.2809	2.1516 C
141 H141	-5.0620	0.7566	1.1682 H
142 H142	-5.2277	-0.7730	2.0835 H
143 H143	-5.6355	0.7999	2.8346 H
144 C144	-3.7937	-0.1401	-2.8557 C
145 H145	-4.6916	-0.4037	-2.2650 H
146 O146	-3.2832	-0.9736	-3.6126 O
147 C147	-3.2792	1.2584	-2.6601 C
148 H148	-3.0283	1.4241	-1.6038 H
149 H149	-2.3959	1.4308	-3.2786 H
150 H150	-4.0588	1.9872	-2.9186 H
151 C151	-1.4363	-3.3101	-3.1072 C
152 H152	-1.5446	-2.4315	-3.7712 H
153 O153	-0.3465	-3.5569	-2.5786 O
154 C154	-2.6790	-4.1342	-2.9183 C
155 H155	-3.0359	-4.5069	-3.8877 H
156 H156	-2.4816	-4.9762	-2.2514 H
157 H157	-3.4836	-3.5140	-2.5015 H
158 C158	-2.8547	4.3353	1.2949 C
159 H159	-2.2364	5.2206	1.0531 H
160 O160	-3.7290	4.4091	2.1656 O
161 C161	-2.5457	3.0956	0.5031 C
162 H162	-1.4972	2.8047	0.6511 H
163 H163	-3.2004	2.2757	0.8058 H
164 H164	-2.6717	3.2918	-0.5699 H
165 C165	0.9337	2.5874	3.0839 C
166 H166	-0.1271	2.7127	3.3730 H
167 O167	1.3466	1.4859	2.7043 O
168 C168	1.7829	3.8229	3.1915 C
169 H169	1.7738	4.1987	4.2234 H
170 H170	2.8098	3.6086	2.8879 H
171 H171	1.3702	4.6209	2.5600 H
172 C172	3.0308	3.7607	1.0756 C
173 H173	2.0802	3.9326	0.5358 H
174 O174	3.2362	2.6805	1.6403 O
175 C175	4.0006	4.9088	1.0579 C
176 H176	3.5375	5.8011	1.5000 H
177 H177	4.9063	4.6528	1.6118 H
178 H178	4.2614	5.1669	0.0230 H
179 C179	3.8253	0.1234	6.3122 C
180 H180	3.2201	0.6316	7.0867 H
181 O181	3.3724	-0.0276	5.1719 O
182 C182	5.1834	-0.3430	6.7562 C
183 H183	5.0861	-1.0423	7.5974 H
184 H184	5.7085	-0.8307	5.9322 H
185 H185	5.7751	0.5082	7.1186 H
186 C186	-0.6191	1.7100	-2.8789 C
187 H187	-0.5136	0.6156	-2.7531 H
188 O188	0.3575	2.3932	-3.2069 O
189 C189	-1.9948	2.2598	-2.6255 C
190 H190	-2.3136	2.0223	-1.6018 H
191 H191	-2.0070	3.3419	-2.7720 H
192 H192	-2.7205	1.7876	-3.3009 H
193 C193	-0.9355	-0.7555	-3.9051 C
194 H194	-0.0617	-0.3606	-4.4574 H
195 O195	-0.7851	-1.6495	-3.0647 O
196 C196	-2.2574	-0.1325	-4.2565 C
197 H197	-2.4661	-0.2678	-5.3261 H
198 H198	-3.0599	-0.5802	-3.6664 H
199 H199	-2.2250	0.9499	-4.0743 H
200 C200	1.6346	-6.5123	3.3894 C
201 H201	0.5835	-6.6415	3.0685 H
202 O202	2.2244	-5.4490	3.1666 O
203 C203	2.2470	-7.6942	4.0874 C
204 H204	2.2173	-8.5759	3.4335 H
205 H205	3.2805	-7.4795	4.3674 H
206 H206	1.6661	-7.9454	4.9847 H
207 C207	8.2666	0.8321	-0.9886 C
208 H208	8.5894	1.1261	-2.0054 H
209 O209	7.0905	0.9893	-0.6421 O
210 C210	9.3411	0.2522	-0.1121 C
211 H211	10.1608	0.9731	0.0075 H
212 H212	8.9357	-0.0086	0.8679 H
213 H213	9.7713	-0.6416	-0.5832 H
214 C214	5.4264	-4.1885	4.4452 C
215 H215	6.3394	-3.5810	4.5934 H
216 O216	4.3924	-3.6601	4.0215 O
217 C217	5.5566	-5.6454	4.7912 C
218 H218	5.8502	-5.7589	5.8433 H
219 H219	4.6128	-6.1659	4.6153 H
220 H220	6.3504	-6.1070	4.1891 H
221 C221	-3.8220	3.2385	-2.6294 C
222 H222	-3.5495	2.8132	-3.6140 H
223 O223	-4.9232	3.7770	-2.4703 O
224 C224	-2.7775	3.1057	-1.5568 C
225 H225	-1.8476	3.5974	-1.8723 H
226 H226	-3.1293	3.5502	-0.6234 H
227 H227	-2.5364	2.0469	-1.3935 H
228 C228	-5.3490	2.6763	0.4962 C
229 H229	-5.3989	3.0593	-0.5408 H
230 O230	-6.3673	2.6490	1.1965 O
231 C231	-3.9924	2.2151	0.9501 C
232 H232	-3.2697	3.0388	0.8772 H
233 H233	-4.0358	1.8550	1.9801 H
234 H234	-3.6269	1.4139	0.2940 H
235 C235	-3.7355	-3.5935	2.1196 C
236 H236	-4.0534	-3.2798	3.1321 H
237 O237	-2.6007	-4.0496	1.9399 O
238 C238	-4.7637	-3.4208	1.0371 C
239 H239	-5.0646	-2.3670	0.9667 H
240 H240	-4.3666	-3.7541	0.0759 H
241 H241	-5.6686	-3.9931	1.2811 H
242 C242	4.0341	-3.3003	5.4708 C
243 H243	3.3687	-4.1524	5.2348 H
244 O244	4.0695	-2.3163	4.7234 O
245 C245	4.8503	-3.4457	6.7244 C
246 H246	5.4847	-4.3398	6.6603 H
247 H247	5.4745	-2.5630	6.8788 H
248 H248	4.1902	-3.5870	7.5905 H
249 C249	1.6529	4.2022	2.7382 C
250 H250	1.1875	4.9412	2.0586 H
251 O251	2.8503	4.2968	3.0303 O
252 C252	0.7360	3.1255	3.2473 C
253 H253	0.3098	2.5634	2.4056 H
254 H254	1.2763	2.4440	3.9078 H
255 H255	-0.1078	3.5731	3.7891 H
256 C256	7.9573	1.9312	-0.8441 C
257 H257	8.1929	1.8993	-1.9249 H
258 O258	7.2890	1.0281	-0.3286 O
259 C259	8.5003	3.1184	-0.0992 C
260 H260	8.1156	4.0482	-0.5390 H
261 H261	8.2213	3.0682	0.9554 H
262 H262	9.5940	3.1534	-0.1905 H
263 C263	1.3183	-6.9264	3.5115 C
264 H264	1.8333	-7.3019	4.4161 H
265 O265	1.5435	-5.7827	3.0999 O
266 C266	0.3661	-7.8914	2.8626 C
267 H267	-0.4143	-8.1890	3.5758 H
268 H268	-0.0947	-7.4398	1.9815 H
269 H269	0.8966	-8.8081	2.5728 H
270 C270	0.3202	-4.8221	-3.0913 C
271 H271	-0.6273	-4.2611	-2.9817 H
272 O272	1.2152	-4.6977	-2.2477 O
273 C273	0.4112	-5.7062	-4.3034 C
274 H274	0.2844	-5.1093	-5.2164 H
275 H275	1.3749	-6.2191	-4.3310 H
276 H276	-0.4004	-6.4458	-4.2930 H
277 C277	-3.1964	2.8177	-0.1822 C
278 H278	-4.0418	2.1196	-0.0320 H
279 O279	-2.9557	3.2663	-1.3086 O
280 C280	-2.4076	3.1523	1.0527 C
281 H281	-1.9929	2.2369	1.4954 H
282 H282	-1.5972	3.8439	0.8129 H
283 H283	-3.0641	3.6012	1.8099 H
284 C284	0.2709	-6.4626	-1.8662 C
285 H285	-0.7177	-6.0314	-2.1138 H
286 O286	1.0289	-5.8697	-1.0904 O
287 C287	0.5887	-7.7731	-2.5300 C
288 H288	0.5516	-7.6621	-3.6219 H
289 H289	1.5787	-8.1234	-2.2301 H
290 H290	-0.1656	-8.5248	-2.2621 H
291 C291	2.6199	-0.2468	6.4298 C
292 H292	3.3869	0.4564	6.0534 H
293 O293	2.3321	-1.2569	5.7781 O
294 C294	1.9923	0.1246	7.7441 C
295 H295	1.5143	1.1105	7.6690 H
296 H296	1.2508	-0.6214	8.0380 H
297 H297	2.7635	0.2047	8.5216 H
298 C298	4.3686	-5.7593	0.0847 C
299 H299	5.2580	-5.3796	-0.4533 H
300 O300	3.8053	-5.0517	0.9274 O
301 C301	3.9321	-7.1484	-0.2880 C
302 H302	4.7466	-7.8620	-0.1049 H
303 H303	3.0519	-7.4402	0.2887 H
304 H304	3.7033	-7.1972	-1.3609 H
305 C305	2.5379	-2.5609	6.5204 C
306 H306	1.9241	-3.4376	6.2388 H
307 O307	2.8468	-1.7210	5.6676 O
308 C308	2.9405	-2.4918	7.9668 C
309 H309	3.5141	-3.3868	8.2423 H
310 H310	3.5407	-1.5989	8.1543 H
311 H311	2.0483	-2.4779	8.6068 H
312 C312	0.7747	-1.5588	6.5020 C
313 H313	0.2221	-2.4678	6.1970 H
314 O314	1.3673	-0.8805	5.6555 O
315 C315	0.7381	-1.2429	7.9710 C
316 H316	1.1541	-2.0799	8.5477 H
317 H317	1.3063	-0.3343	8.1809 H
318 H318	-0.3004	-1.1141	8.3038 H
319 C319	0.7019	-4.6041	-3.1098 C
320 H320	0.2528	-5.3528	-2.4298 H
321 O321	1.4771	-3.7498	-2.6659 O
322 C322	0.2995	-4.7192	-4.5534 C
323 H323	-0.7906	-4.6273	-4.6500 H
324 H324	0.7874	-3.9448	-5.1491 H
325 H325	0.5697	-5.7096	-4.9430 H
326 C326	4.8408	3.2639	0.6981 C
327 H327	4.3184	3.9404	-0.0047 H
328 O328	5.7513	2.5324	0.2930 O
329 C329	4.3618	3.3162	2.1218 C
330 H330	3.2935	3.0662	2.1701 H
331 H331	4.9302	2.6200	2.7421 H
332 H332	4.4672	4.3347	2.5184 H
333 C333	0.8852	-4.8430	-2.9311 C
334 H334	1.6508	-5.3507	-2.3139 H
335 O335	0.6532	-3.6403	-2.7651 O
336 C336	0.1887	-5.7120	-3.9404 C
337 H337	-0.3100	-6.5507	-3.4365 H
338 H338	-0.5464	-5.1317	-4.5020 H
339 H339	0.9212	-6.1484	-4.6324 H
340 C340	-4.3787	-0.5410	-3.6773 C
341 H341	-3.9321	0.3540	-4.1505 H
342 O342	-5.0271	-1.3436	-4.3580 O
343 C343	-4.1341	-0.6813	-2.2009 C
344 H344	-4.5288	0.1941	-1.6680 H
345 H345	-4.6083	-1.5880	-1.8193 H
346 H346	-3.0554	-0.7157	-1.9985 H
347 C347	5.5900	-3.0682	-1.1515 C
348 H348	6.1852	-2.4485	-1.8490 H
349 O349	5.9842	-3.2509	0.0057 O
350 C350	4.3196	-3.6384	-1.7171 C
351 H351	4.5430	-4.2642	-2.5914 H
352 H352	3.7987	-4.2329	-0.9636 H
353 H353	3.6648	-2.8288	-2.0659 H
354 C354	-3.4103	-3.7473	-1.7119 C
355 H355	-3.0460	-3.3471	-2.6772 H
356 O356	-2.6242	-4.2985	-0.9333 O
357 C357	-4.8792	-3.5659	-1.4504 C
358 H358	-5.4663	-4.0518	-2.2411 H
359 H359	-5.1498	-3.9881	-0.4803 H
360 H360	-5.1380	-2.4990	-1.4737 H
361 C361	2.8582	-3.4502	-2.3056 C
362 H362	3.6708	-2.8036	-2.6880 H
363 O363	2.8805	-3.8464	-1.1349 O
364 C364	1.7783	-3.7846	-3.2960 C
365 H365	2.2101	-4.2938	-4.1679 H
366 H366	1.0215	-4.4232	-2.8355 H
367 H367	1.3083	-2.8642	-3.6673 H
368 C368	4.0129	3.1585	4.8225 C
369 H369	4.1975	4.1938	4.4779 H
370 O370	4.0001	2.2277	4.0092 O
371 C371	3.7902	2.9994	6.3004 C
372 H372	2.9293	3.6020	6.6195 H
373 H373	3.6168	1.9506	6.5501 H
374 H374	4.6611	3.3720	6.8557 H
@<TRIPOS>BOND
1 1 2 2
2 1 3 1
3 1 16 1
4 3 4 1
5 5 9 1
6 5 15 1
7 5 16 1
8 6 7 1
9 6 8 1
10 6 9 2
11 9 10 1
12 10 11 1
13 10 12 1
14 10 13 1
15 14 15 1
16 14 17 1
17 14 18 1
18 14 19 1
19 15 20 1
20 15 21 1
21 16 17 1
22 16 22 1
23 17 23 1
24 17 24 1
25 25 26 1
26 25 27 2
27 25 28 1
28 28 29 1
29 28 30 1
30 28 31 1
31 32 33 1
32 32 34 2
33 32 35 1
34 35 36 1
35 35 37 1
36 35 38 1
37 39 40 1
38 39 41 2
39 39 42 1
40 42 43 1
41 42 44 1
42 42 45 1
43 46 47 1
44 46 48 2
45 46 49 1
46 49 50 1
47 49 51 1
48 49 52 1
49 53 54 1
50 53 55 2
51 53 56 1
52 56 57 1
53 56 58 1
54 56 59 1
55 60 61 1
56 60 62 2
57 60 63 1
58 63 64 1
59 63 65 1
60 63 66 1
61 67 68 1
62 67 69 2
63 67 70 1
64 70 71 1
65 70 72 1
66 70 73 1
67 74 75 1
68 74 76 2
69 74 77 1
70 77 78 1
71 77 79 1
72 77 80 1
73 81 82 1
74 81 83 2
75 81 84 1
76 84 85 1
77 84 86 1
78 84 87 1
79 88 89 1
80 88 90 2
81 88 91 1
82 91 92 1
83 91 93 1
84 91 94 1
85 95 96 1
86 95 97 2
87 95 98 1
88 98 99 1
89 98 100 1
90 98 101 1
91 102 103 1
92 102 104 2
93 102 105 1
94 105 106 1
95 105 107 1
96 105 108 1
97 109 110 1
98 109 111 2
99 109 112 1
100 112 113 1
101 112 114 1
102 112 115 1
103 116 117 1
104 116 118 2
105 116 119 1
106 119 120 1
107 119 121 1
108 119 122 1
109 123 124 1
110 123 125 2
111 123 126 1
112 126 127 1
113 126 128 1
114 126 129 1
115 130 131 1
116 130 132 2
117 130 133 1
118 133 134 1
119 133 135 1
120 133 136 1
121 137 138 1
122 137 139 2
123 137 140 1
124 140 141 1
125 140 142 1
126 140 143 1
127 144 145 1
128 144 146 2
129 144 147 1
130 147 148 1
131 147 149 1
132 147 150 1
133 151 152 1
134 151 153 2
135 151 154 1
136 154 155 1
137 154 156 1
138 154 157 1
139 158 159 1
140 158 160 2
141 158 161 1
142 161 162 1
143 161 163 1
144 161 164 1
145 165 166 1
146 165 167 2
147 165 168 1
148 168 169 1
149 168 170 1
150 168 171 1
151 172 173 1
152 172 174 2
153 172 175 1
154 175 176 1
155 175 177 1
156 175 178 1
157 179 180 1
158 179 181 2
159 179 182 1
160 182 183 1
161 182 184 1
162 182 185 1
163 186 187 1
164 186 188 2
165 186 189 1
166 189 190 1
167 189 191 1
168 189 192 1
169 193 194 1
170 193 195 2
171 193 196 1
172 196 197 1
173 196 198 1
174 196 199 1
175 200 201 1
176 200 202 2
177 200 203 1
178 203 204 1
179 203 205 1
180 203 206 1
181 207 208 1
182 207 209 2
183 207 210 1
184 210 211 1
185 210 212 1
186 210 213 1
187 214 215 1
188 214 216 2
189 214 217 1
190 217 218 1
191 217 219 1
192 217 220 1
193 221 222 1
194 221 223 2
195 221 224 1
196 224 225 1
197 224 226 1
198 224 227 1
199 228 229 1
200 228 230 2
201 228 231 1
202 231 232 1
203 231 233 1
204 231 234 1
205 235 236 1
206 235 237 2
207 235 238 1
208 238 239 1
209 238 240 1
210 238 241 1
211 242 243 1
212 242 244 2
213 242 245 1
214 245 246 1
215 245 247 1
216 245 248 1
217 249 250 1
218 249 251 2
219 249 252 1
220 252 253 1
221 252 254 1
222 252 255 1
223 256 257 1
224 256 258 2
225 256 259 1
226 259 260 1
227 259 261 1
228 259 262 1
229 263 264 1
230 263 265 2
231 263 266 1
232 266 267 1
233 266 268 1
234 266 269 1
235 270 271 1
236 270 272 2
237 270 273 1
238 273 274 1
239 273 275 1
240 273 276 1
241 277 278 1
242 277 279 2
243 277 280 1
244 280 281 1
245 280 282 1
246 280 283 1
247 284 285 1
248 284 286 2
249 284 287 1
250 287 288 1
251 287 289 1
252 287 290 1
253 291 292 1
254 291 293 2
255 291 294 1
256 294 295 1
257 294 296 1
258 294 297 1
259 298 299 1
260 298 300 2
261 298 301 1
262 301 302 1
263 301 303 1
264 301 304 1
265 305 306 1
266 305 307 2
267 305 308 1
268 308 309 1
269 308 310 1
270 308 311 1
271 312 313 1
272 312 314 2
273 312 315 1
274 315 316 1
275 315 317 1
276 315 318 1
277 319 320 1
278 319 321 2
279 319 322 1
280 322 323 1
281 322 324 1
282 322 325 1
283 326 327 1
284 326 328 2
285 326 329 1
286 329 330 1
287 329 331 1
288 329 332 1
289 333 334 1
290 333 335 2
291 333 336 1
292 336 337 1
293 336 338 1
294 336 339 1
295 340 341 1
296 340 342 2
297 340 343 1
298 343 344 1
299 343 345 1
300 343 346 1
301 347 348 1
302 347 349 2
303 347 350 1
304 350 351 1
305 350 352 1
306 350 353 1
307 354 355 1
308 354 356 2
309 354 357 1
310 357 358 1
311 357 359 1
312 357 360 1
313 361 362 1
314 361 363 2
315 361 364 1
316 364 365 1
317 364 366 1
318 364 367 1
319 368 369 1
320 368 370 2
321 368 371 1
322 371 372 1
323 371 373 1
324 371 374 1
