@<TRIPOS>MOLECULE
Molecule Name
374 324
SMALL
NO_CHARGES

@<TRIPOS>ATOM
1 C1	0.0000	0.0000	0.0000 C
2 O2	-1.2246	0.0000	0.0000 O
3 O3	0.6881	1.2055	0.0000 O
4 H4	1.6588	1.0929	0.0557 H
5 N5	0.3558	-2.3607	0.7055 N
6 C6	1.0256	-1.3436	2.7970 C
7 H7	1.3523	-0.4154	2.3448 H
8 H8	1.1199	-1.4104	3.8728 H
9 C9	0.4813	-2.3674	2.0966 C
10 C10	-0.0226	-3.6124	2.7917 C
11 H11	0.4582	-4.5189	2.4030 H
12 H12	0.1810	-3.5524	3.8626 H
13 H13	-1.1053	-3.7341	2.6626 H
14 C14	-0.3899	-2.7806	-1.5086 C
15 C15	-0.3284	-3.3966	-0.0970 C
16 C16	0.8713	-1.2663	-0.0994 C
17 C17	0.8242	-1.8287	-1.5478 C
18 H18	-0.3527	-3.5394	-2.2955 H
19 H19	-1.3137	-2.2059	-1.6225 H
20 H20	0.2410	-4.3382	-0.0960 H
21 H21	-1.3298	-3.6077	0.2923 H
22 H22	1.9010	-1.0275	0.2077 H
23 H23	0.7292	-1.0444	-2.3047 H
24 H24	1.7500	-2.3819	-1.7438 H
25 C25	3.7287	1.8194	3.0997 C
26 H26	4.2209	1.3066	3.9479 H
27 O27	3.6702	1.2709	1.9935 O
28 C28	3.1658	3.1791	3.4054 C
29 H29	3.9616	3.8451	3.7648 H
30 H30	2.7010	3.6093	2.5157 H
31 H31	2.4238	3.1080	4.2117 H
32 C32	5.0945	0.7847	-1.6664 C
33 H33	4.7524	0.3176	-2.6094 H
34 O34	4.3435	0.8220	-0.6852 O
35 C35	6.4901	1.3421	-1.6906 C
36 H36	6.5789	2.1039	-2.4766 H
37 H37	6.7432	1.7814	-0.7234 H
38 H38	7.2092	0.5491	-1.9353 H
39 C39	-4.1721	-1.5378	-0.2339 C
40 H40	-4.0458	-0.6897	-0.9335 H
41 O41	-3.8659	-2.6825	-0.5859 O
42 C42	-4.7242	-1.1831	1.1183 C
43 H43	-5.7076	-0.7062	1.0114 H
44 H44	-4.8148	-2.0760	1.7404 H
45 H45	-4.0702	-0.4530	1.6135 H
46 C46	3.6489	3.1097	-1.3663 C
47 H47	2.8698	3.5024	-0.6856 H
48 O48	4.1040	1.9729	-1.1970 O
49 C49	4.0798	4.0436	-2.4623 C
50 H50	4.4698	4.9759	-2.0323 H
51 H51	4.8473	3.5764	-3.0830 H
52 H52	3.2180	4.3181	-3.0850 H
53 C53	4.0062	2.3968	-2.2739 C
54 H54	4.9154	2.7166	-1.7302 H
55 O55	3.5006	1.2931	-2.0406 O
56 C56	3.4708	3.3830	-3.2737 C
57 H57	4.2349	3.6065	-4.0301 H
58 H58	2.5771	2.9869	-3.7606 H
59 H59	3.2302	4.3320	-2.7764 H
60 C60	4.0805	2.3632	1.7753 C
61 H61	3.5103	2.9487	1.0292 H
62 O62	4.0486	1.1278	1.7494 O
63 C63	4.8590	3.1729	2.7740 C
64 H64	4.1833	3.8338	3.3333 H
65 H65	5.3887	2.5170	3.4682 H
66 H66	5.5788	3.8206	2.2561 H
67 C67	4.6451	-2.6205	1.6604 C
68 H68	4.4135	-3.7014	1.7110 H
69 O69	4.4909	-2.0026	0.6009 O
70 C70	5.1404	-2.0053	2.9391 C
71 H71	6.0545	-2.5139	3.2735 H
72 H72	5.3429	-0.9414	2.7982 H
73 H73	4.3953	-2.1370	3.7349 H
74 C74	-1.9237	0.3415	3.4871 C
75 H75	-1.7798	-0.4311	2.7080 H
76 O76	-1.9307	0.0234	4.6816 O
77 C77	-2.1013	1.7452	2.9800 C
78 H78	-2.9709	1.7980	2.3114 H
79 H79	-2.2361	2.4384	3.8130 H
80 H80	-1.2271	2.0460	2.3873 H
81 C81	-2.0979	3.5955	0.9395 C
82 H82	-1.5203	2.8968	0.3049 H
83 O83	-2.0646	4.8102	0.7131 O
84 C84	-2.8878	2.9586	2.0484 C
85 H85	-2.2187	2.3982	2.7149 H
86 H86	-3.4242	3.7183	2.6208 H
87 H87	-3.6026	2.2346	1.6351 H
88 C88	5.3430	-1.3459	-0.2902 C
89 H89	5.4714	-2.2040	0.3968 H
90 O90	4.3789	-1.3097	-1.0630 O
91 C91	6.4000	-0.2813	-0.1988 C
92 H92	7.3888	-0.7123	-0.4051 H
93 H93	6.1948	0.5230	-0.9084 H
94 H94	6.4383	0.1262	0.8202 H
95 C95	-2.6851	2.3955	-3.1965 C
96 H96	-1.9710	3.0330	-2.6412 H
97 O97	-2.5908	2.2833	-4.4240 O
98 C98	-3.7290	1.7128	-2.3580 C
99 H99	-4.3222	2.4587	-1.8124 H
100 H100	-4.3872	1.1076	-2.9850 H
101 H101	-3.2495	1.0754	-1.6032 H
102 C102	2.1263	2.5594	-3.0594 C
103 H103	2.0117	2.9287	-2.0225 H
104 O104	2.7275	1.5016	-3.2776 O
105 C105	1.5119	3.4235	-4.1247 C
106 H106	1.9490	4.4305	-4.0927 H
107 H107	1.6719	2.9851	-5.1120 H
108 H108	0.4352	3.5395	-3.9424 H
109 C109	4.6250	-2.0755	0.3637 C
110 H110	4.5078	-3.0959	0.7756 H
111 O111	4.3674	-1.8535	-0.8247 O
112 C112	5.1036	-1.0363	1.3384 C
113 H113	6.0774	-1.3284	1.7539 H
114 H114	5.1901	-0.0640	0.8489 H
115 H115	4.4073	-0.9630	2.1844 H
116 C116	-2.1157	4.1466	1.8838 C
117 H117	-1.3644	4.7543	1.3445 H
118 O118	-2.2268	4.2445	3.1110 O
119 C119	-2.9471	3.2356	1.0248 C
120 H120	-2.2997	2.5358	0.4797 H
121 H121	-3.6585	2.6770	1.6368 H
122 H122	-3.4892	3.8198	0.2693 H
123 C123	4.4023	0.3533	-3.0483 C
124 H124	4.9272	1.0261	-2.3438 H
125 O125	3.5062	-0.3941	-2.6404 O
126 C126	4.8599	0.4307	-4.4779 C
127 H127	5.9301	0.1937	-4.5452 H
128 H128	4.2905	-0.2634	-5.0997 H
129 H129	4.7372	1.4533	-4.8588 H
130 C130	-3.5842	-1.1555	-4.2024 C
131 H131	-4.0993	-1.1271	-5.1814 H
132 O132	-2.4416	-1.6192	-4.1165 O
133 C133	-4.3674	-0.6040	-3.0441 C
134 H134	-5.3089	-1.1571	-2.9274 H
135 H135	-3.7854	-0.6714	-2.1225 H
136 H136	-4.6366	0.4433	-3.2349 H
137 C137	-3.4083	3.5895	2.0058 C
138 H138	-3.7656	3.8232	0.9849 H
139 O139	-3.6407	4.3684	2.9371 O
140 C140	-2.6510	2.2988	2.1457 C
141 H141	-1.7693	2.3055	1.4910 H
142 H142	-2.3381	2.1495	3.1813 H
143 H143	-3.2778	1.4565	1.8244 H
144 C144	-4.9276	1.9405	1.5463 C
145 H145	-5.5626	1.2098	1.0102 H
146 O146	-5.0803	2.1215	2.7596 O
147 C147	-3.9119	2.6565	0.7010 C
148 H148	-4.4126	3.2013	-0.1105 H
149 H149	-3.3324	3.3546	1.3088 H
150 H150	-3.2369	1.9317	0.2267 H
151 C151	-3.1448	2.0867	3.2405 C
152 H152	-2.9904	2.7561	2.3729 H
153 O153	-3.5487	2.5470	4.3142 O
154 C154	-2.8320	0.6362	3.0011 C
155 H155	-1.7850	0.5220	2.6902 H
156 H156	-3.0120	0.0519	3.9060 H
157 H157	-3.4503	0.2469	2.1814 H
158 C158	-2.5370	4.7219	-0.8325 C
159 H159	-2.4077	5.2720	0.1190 H
160 O160	-3.1805	5.2282	-1.7586 O
161 C161	-1.8881	3.3674	-0.8890 C
162 H162	-2.2841	2.7254	-0.0909 H
163 H163	-2.0656	2.8986	-1.8592 H
164 H164	-0.8077	3.4588	-0.7153 H
165 C165	3.9963	-4.7632	0.4889 C
166 H166	4.9089	-4.1766	0.7073 H
167 O167	3.1563	-4.3291	-0.3073 O
168 C168	3.8809	-6.0733	1.2165 C
169 H169	3.9025	-5.9058	2.3016 H
170 H170	2.9547	-6.5827	0.9420 H
171 H171	4.7396	-6.7147	0.9777 H
172 C172	4.5623	1.8574	1.5504 C
173 H173	3.5316	2.0117	1.9225 H
174 O174	4.7544	1.5388	0.3716 O
175 C175	5.6528	2.0621	2.5643 C
176 H176	5.5125	1.3790	3.4128 H
177 H177	6.6320	1.8901	2.1126 H
178 H178	5.6065	3.0823	2.9679 H
179 C179	2.0981	4.9593	0.4492 C
180 H180	1.9448	5.1448	1.5294 H
181 O181	3.2431	4.8944	-0.0120 O
182 C182	0.8437	4.8017	-0.3637 C
183 H183	0.2225	5.7032	-0.2780 H
184 H184	1.0881	4.6227	-1.4129 H
185 H185	0.2453	3.9665	0.0237 H
186 C186	2.0311	1.3621	-4.8915 C
187 H187	2.7218	2.2242	-4.8267 H
188 O188	2.2342	0.3525	-4.2078 O
189 C189	0.8792	1.5271	-5.8429 C
190 H190	1.2524	1.7162	-6.8583 H
191 H191	0.2523	0.6329	-5.8428 H
192 H192	0.2770	2.4002	-5.5589 H
193 C193	-2.9840	2.3863	-3.6164 C
194 H194	-3.1081	3.3050	-4.2207 H
195 O195	-2.8895	1.2866	-4.1729 O
196 C196	-2.9431	2.5926	-2.1282 C
197 H197	-3.8682	3.0773	-1.7886 H
198 H198	-2.8187	1.6376	-1.6132 H
199 H199	-2.1169	3.2654	-1.8628 H
200 C200	2.0237	-4.2492	-4.8157 C
201 H201	1.9514	-3.2151	-5.2029 H
202 O202	2.0478	-4.4543	-3.5969 O
203 C203	2.0869	-5.3276	-5.8608 C
204 H204	2.9543	-5.1687	-6.5153 H
205 H205	2.1564	-6.3112	-5.3915 H
206 H206	1.1954	-5.2860	-6.5006 H
207 C207	-5.0021	0.3802	3.1402 C
208 H208	-4.6568	1.1491	3.8573 H
209 O209	-5.8819	-0.4234	3.4690 O
210 C210	-4.3327	0.4046	1.7947 C
211 H211	-3.2486	0.2720	1.9098 H
212 H212	-4.7329	-0.3842	1.1542 H
213 H213	-4.4833	1.3811	1.3156 H
214 C214	-5.1607	1.8786	-2.0366 C
215 H215	-5.5103	2.7895	-1.5144 H
216 O216	-5.3344	1.7572	-3.2545 O
217 C217	-4.4880	0.8535	-1.1674 C
218 H218	-5.1712	0.5254	-0.3726 H
219 H219	-4.1768	-0.0076	-1.7626 H
220 H220	-3.6133	1.2947	-0.6712 H
221 C221	3.9160	-4.0482	1.1046 C
222 H222	3.8871	-3.6948	2.1529 H
223 O223	2.9338	-4.6169	0.6150 O
224 C224	5.1998	-3.7840	0.3690 C
225 H225	6.0396	-4.2611	0.8916 H
226 H226	5.1399	-4.1640	-0.6531 H
227 H227	5.4094	-2.7062	0.3503 H
228 C228	-2.6826	4.4303	-1.5743 C
229 H229	-2.8889	4.2741	-2.6502 H
230 O230	-2.3569	5.5492	-1.1618 O
231 C231	-2.8288	3.2130	-0.7049 C
232 H232	-2.1521	2.4196	-1.0494 H
233 H233	-2.6075	3.4578	0.3360 H
234 H234	-3.8492	2.8146	-0.7816 H
235 C235	-1.6856	2.8898	4.0591 C
236 H236	-0.7741	3.4683	4.3026 H
237 O237	-2.7636	3.1794	4.5900 O
238 C238	-1.4974	1.7736	3.0703 C
239 H239	-0.7540	1.0578	3.4459 H
240 H240	-2.4437	1.2592	2.8898 H
241 H241	-1.1061	2.1696	2.1238 H
242 C242	4.3704	-3.6596	-3.8531 C
243 H243	4.1857	-2.6722	-4.3171 H
244 O244	3.7854	-3.9735	-2.8103 O
245 C245	5.3517	-4.5396	-4.5754 C
246 H246	6.3241	-4.0353	-4.6543 H
247 H247	5.4724	-5.4893	-4.0500 H
248 H248	5.0074	-4.7264	-5.6012 H
249 C249	-0.8375	3.5702	-3.9501 C
250 H250	-1.3071	4.3925	-4.5227 H
251 O251	-0.4261	2.5628	-4.5366 O
252 C252	-0.7515	3.7840	-2.4648 C
253 H253	-1.7557	3.9337	-2.0462 H
254 H254	-0.2766	2.9272	-1.9822 H
255 H255	-0.1784	4.6949	-2.2470 H
256 C256	4.9271	-3.4531	-1.9070 C
257 H257	4.2579	-4.2112	-2.3566 H
258 O258	4.4706	-2.6050	-1.1322 O
259 C259	6.3725	-3.5479	-2.3081 C
260 H260	6.4687	-3.4547	-3.3981 H
261 H261	6.9569	-2.7653	-1.8197 H
262 H262	6.7756	-4.5328	-2.0375 H
263 C263	3.0989	1.8308	-3.7754 C
264 H264	3.6239	2.5036	-3.0708 H
265 O265	2.2028	1.0835	-3.3674 O
266 C266	3.5565	1.9082	-5.2050 C
267 H267	4.6267	1.6713	-5.2722 H
268 H268	2.9871	1.2141	-5.8267 H
269 H269	3.4338	2.9308	-5.5858 H
270 C270	1.3997	0.1885	-5.8465 C
271 H271	1.2135	1.2773	-5.7799 H
272 O272	1.7475	-0.4432	-4.8425 O
273 C273	1.1995	-0.4193	-7.2065 C
274 H274	1.8611	0.0646	-7.9374 H
275 H275	1.4040	-1.4917	-7.1798 H
276 H276	0.1702	-0.2481	-7.5487 H
277 C277	3.9244	1.7683	3.6795 C
278 H278	4.0528	0.9103	4.3665 H
279 O279	2.9604	1.8046	2.9067 O
280 C280	4.9814	2.8329	3.7709 C
281 H281	5.9702	2.4019	3.5645 H
282 H282	4.7763	3.6373	3.0613 H
283 H283	5.0198	3.2404	4.7898 H
284 C284	-4.1516	-1.2221	3.0396 C
285 H285	-3.8149	-0.3555	3.6398 H
286 O286	-3.4465	-2.2345	2.9633 O
287 C287	-5.4820	-1.0592	2.3594 C
288 H288	-5.4580	-0.1922	1.6858 H
289 H289	-5.7340	-1.9578	1.7924 H
290 H290	-6.2647	-0.8607	3.1036 H
291 C291	-0.4768	-3.8808	-5.9492 C
292 H292	-0.3625	-2.7803	-5.9660 H
293 O293	-0.2359	-4.5132	-4.9148 O
294 C294	-0.9302	-4.5031	-7.2401 C
295 H295	-0.2196	-4.2665	-8.0433 H
296 H296	-1.0157	-5.5865	-7.1329 H
297 H297	-1.8996	-4.0842	-7.5411 H
298 C298	0.0400	-6.0505	-4.8835 C
299 H299	0.4871	-5.2936	-5.5557 H
300 O300	0.1469	-5.9311	-3.6578 O
301 C301	-0.6745	-7.1815	-5.5686 C
302 H302	0.0152	-7.7138	-6.2373 H
303 H303	-1.0826	-7.8775	-4.8327 H
304 H304	-1.4860	-6.7904	-6.1965 H
305 C305	-4.3808	-0.8054	4.1824 C
306 H306	-4.0603	0.0143	4.8533 H
307 O307	-5.4558	-1.3829	4.3793 O
308 C308	-3.4316	-1.1337	3.0642 C
309 H309	-2.4518	-1.4170	3.4716 H
310 H310	-3.8259	-1.9499	2.4553 H
311 H311	-3.2691	-0.2487	2.4348 H
312 C312	5.0018	-3.0779	-0.2963 C
313 H313	4.6315	-3.3468	-1.3039 H
314 O314	4.4450	-2.1836	0.3503 O
315 C315	6.1877	-3.8646	0.1875 C
316 H316	7.0299	-3.7432	-0.5068 H
317 H317	6.4841	-3.5345	1.1854 H
318 H318	5.9468	-4.9357	0.2093 H
319 C319	2.7527	-2.5472	-5.4813 C
320 H320	2.8701	-1.5122	-5.8547 H
321 O321	2.8718	-2.7880	-4.2747 O
322 C322	2.4498	-3.5816	-6.5289 C
323 H323	3.2485	-3.6010	-7.2824 H
324 H324	2.3506	-4.5692	-6.0736 H
325 H325	1.5222	-3.3237	-7.0569 H
326 C326	1.1763	-8.0481	0.8951 C
327 H327	0.6854	-7.9153	-0.0877 H
328 O328	1.0851	-7.1671	1.7575 O
329 C329	1.9275	-9.3377	1.0732 C
330 H330	2.7109	-9.4270	0.3087 H
331 H331	2.3777	-9.3838	2.0671 H
332 H332	1.2507	-10.1912	0.9346 H
333 C333	0.9414	0.0968	7.1609 C
334 H334	0.9024	1.0010	6.5241 H
335 O335	1.0160	-1.0231	6.6429 O
336 C336	0.8970	0.3473	8.6422 C
337 H337	-0.0224	0.8864	8.9066 H
338 H338	0.9401	-0.5960	9.1909 H
339 H339	1.7372	0.9875	8.9422 H
340 C340	1.9397	-3.4356	7.3903 C
341 H341	2.1311	-4.2989	8.0556 H
342 O342	1.7435	-3.6151	6.1831 O
343 C343	1.9408	-2.0904	8.0608 C
344 H344	2.9090	-1.9119	8.5474 H
345 H345	1.7446	-1.3003	7.3329 H
346 H346	1.1789	-2.0618	8.8511 H
347 C347	-3.7932	1.3778	-3.7408 C
348 H348	-4.3684	0.4491	-3.9177 H
349 O349	-3.8898	2.3260	-4.5280 O
350 C350	-2.9262	1.3768	-2.5130 C
351 H351	-2.2000	0.5546	-2.5643 H
352 H352	-2.3979	2.3278	-2.4174 H
353 H353	-3.5388	1.2033	-1.6184 H
354 C354	-5.0157	-0.6911	2.7620 C
355 H355	-5.1579	-1.5464	3.4496 H
356 O356	-5.8670	0.2031	2.7009 O
357 C357	-3.7515	-0.7185	1.9495 C
358 H358	-3.7149	-1.6305	1.3388 H
359 H359	-3.6939	0.1592	1.3023 H
360 H360	-2.8769	-0.7460	2.6128 H
361 C361	5.4958	-2.1139	1.1619 C
362 H362	5.9347	-1.0991	1.1148 H
363 O363	4.2807	-2.2717	0.9982 O
364 C364	6.4693	-3.2271	1.4306 C
365 H365	6.9846	-3.0559	2.3851 H
366 H366	5.9520	-4.1885	1.4599 H
367 H367	7.2432	-3.2480	0.6519 H
368 C368	0.6933	-3.4431	7.4593 C
369 H369	-0.3104	-3.6473	7.8781 H
370 O370	1.0848	-4.0571	6.4604 O
371 C371	1.4959	-2.3995	8.1845 C
372 H372	1.6396	-2.6945	9.2325 H
373 H373	2.4675	-2.2630	7.7051 H
374 H374	0.9524	-1.4454	8.1956 H
@<TRIPOS>BOND
1 1 2 2
2 1 3 1
3 1 16 1
4 3 4 1
5 5 9 1
6 5 15 1
7 5 16 1
8 6 7 1
9 6 8 1
10 6 9 2
11 9 10 1
12 10 11 1
13 10 12 1
14 10 13 1
15 14 15 1
16 14 17 1
17 14 18 1
18 14 19 1
19 15 20 1
20 15 21 1
21 16 17 1
22 16 22 1
23 17 23 1
24 17 24 1
25 25 26 1
26 25 27 2
27 25 28 1
28 28 29 1
29 28 30 1
30 28 31 1
31 32 33 1
32 32 34 2
33 32 35 1
34 35 36 1
35 35 37 1
36 35 38 1
37 39 40 1
38 39 41 2
39 39 42 1
40 42 43 1
41 42 44 1
42 42 45 1
43 46 47 1
44 46 48 2
45 46 49 1
46 49 50 1
47 49 51 1
48 49 52 1
49 53 54 1
50 53 55 2
51 53 56 1
52 56 57 1
53 56 58 1
54 56 59 1
55 60 61 1
56 60 62 2
57 60 63 1
58 63 64 1
59 63 65 1
60 63 66 1
61 67 68 1
62 67 69 2
63 67 70 1
64 70 71 1
65 70 72 1
66 70 73 1
67 74 75 1
68 74 76 2
69 74 77 1
70 77 78 1
71 77 79 1
72 77 80 1
73 81 82 1
74 81 83 2
75 81 84 1
76 84 85 1
77 84 86 1
78 84 87 1
79 88 89 1
80 88 90 2
81 88 91 1
82 91 92 1
83 91 93 1
84 91 94 1
85 95 96 1
86 95 97 2
87 95 98 1
88 98 99 1
89 98 100 1
90 98 101 1
91 102 103 1
92 102 104 2
93 102 105 1
94 105 106 1
95 105 107 1
96 105 108 1
97 109 110 1
98 109 111 2
99 109 112 1
100 112 113 1
101 112 114 1
102 112 115 1
103 116 117 1
104 116 118 2
105 116 119 1
106 119 120 1
107 119 121 1
108 119 122 1
109 123 124 1
110 123 125 2
111 123 126 1
112 126 127 1
113 126 128 1
114 126 129 1
115 130 131 1
116 130 132 2
117 130 133 1
118 133 134 1
119 133 135 1
120 133 136 1
121 137 138 1
122 137 139 2
123 137 140 1
124 140 141 1
125 140 142 1
126 140 143 1
127 144 145 1
128 144 146 2
129 144 147 1
130 147 148 1
131 147 149 1
132 147 150 1
133 151 152 1
134 151 153 2
135 151 154 1
136 154 155 1
137 154 156 1
138 154 157 1
139 158 159 1
140 158 160 2
141 158 161 1
142 161 162 1
143 161 163 1
144 161 164 1
145 165 166 1
146 165 167 2
147 165 168 1
148 168 169 1
149 168 170 1
150 168 171 1
151 172 173 1
152 172 174 2
153 172 175 1
154 175 176 1
155 175 177 1
156 175 178 1
157 179 180 1
158 179 181 2
159 179 182 1
160 182 183 1
161 182 184 1
162 182 185 1
163 186 187 1
164 186 188 2
165 186 189 1
166 189 190 1
167 189 191 1
168 189 192 1
169 193 194 1
170 193 195 2
171 193 196 1
172 196 197 1
173 196 198 1
174 196 199 1
175 200 201 1
176 200 202 2
177 200 203 1
178 203 204 1
179 203 205 1
180 203 206 1
181 207 208 1
182 207 209 2
183 207 210 1
184 210 211 1
185 210 212 1
186 210 213 1
187 214 215 1
188 214 216 2
189 214 217 1
190 217 218 1
191 217 219 1
192 217 220 1
193 221 222 1
194 221 223 2
195 221 224 1
196 224 225 1
197 224 226 1
198 224 227 1
199 228 229 1
200 228 230 2
201 228 231 1
202 231 232 1
203 231 233 1
204 231 234 1
205 235 236 1
206 235 237 2
207 235 238 1
208 238 239 1
209 238 240 1
210 238 241 1
211 242 243 1
212 242 244 2
213 242 245 1
214 245 246 1
215 245 247 1
216 245 248 1
217 249 250 1
218 249 251 2
219 249 252 1
220 252 253 1
221 252 254 1
222 252 255 1
223 256 257 1
224 256 258 2
225 256 259 1
226 259 260 1
227 259 261 1
228 259 262 1
229 263 264 1
230 263 265 2
231 263 266 1
232 266 267 1
233 266 268 1
234 266 269 1
235 270 271 1
236 270 272 2
237 270 273 1
238 273 274 1
239 273 275 1
240 273 276 1
241 277 278 1
242 277 279 2
243 277 280 1
244 280 281 1
245 280 282 1
246 280 283 1
247 284 285 1
248 284 286 2
249 284 287 1
250 287 288 1
251 287 289 1
252 287 290 1
253 291 292 1
254 291 293 2
255 291 294 1
256 294 295 1
257 294 296 1
258 294 297 1
259 298 299 1
260 298 300 2
261 298 301 1
262 301 302 1
263 301 303 1
264 301 304 1
265 305 306 1
266 305 307 2
267 305 308 1
268 308 309 1
269 308 310 1
270 308 311 1
271 312 313 1
272 312 314 2
273 312 315 1
274 315 316 1
275 315 317 1
276 315 318 1
277 319 320 1
278 319 321 2
279 319 322 1
280 322 323 1
281 322 324 1
282 322 325 1
283 326 327 1
284 326 328 2
285 326 329 1
286 329 330 1
287 329 331 1
288 329 332 1
289 333 334 1
290 333 335 2
291 333 336 1
292 336 337 1
293 336 338 1
294 336 339 1
295 340 341 1
296 340 342 2
297 340 343 1
298 343 344 1
299 343 345 1
300 343 346 1
301 347 348 1
302 347 349 2
303 347 350 1
304 350 351 1
305 350 352 1
306 350 353 1
307 354 355 1
308 354 356 2
309 354 357 1
310 357 358 1
311 357 359 1
312 357 360 1
313 361 362 1
314 361 363 2
315 361 364 1
316 364 365 1
317 364 366 1
318 364 367 1
319 368 369 1
320 368 370 2
321 368 371 1
322 371 372 1
323 371 373 1
324 371 374 1
