@<TRIPOS>MOLECULE
Molecule Name
360 312
SMALL
NO_CHARGES

@<TRIPOS>ATOM
1 C1	0.0000	0.0000	0.0000 C
2 O2	-1.2320	0.0000	0.0000 O
3 O3	0.7390	1.1677	0.0000 O
4 H4	0.1439	1.9494	0.0084 H
5 N5	0.3714	-2.3475	0.6857 N
6 C6	0.9223	-1.3693	2.8311 C
7 H7	1.3055	-0.4466	2.4129 H
8 H8	0.9484	-1.4572	3.9095 H
9 C9	0.4166	-2.3781	2.0818 C
10 C10	-0.1368	-3.6308	2.7243 C
11 H11	0.3680	-4.5332	2.3570 H
12 H12	-0.0052	-3.5860	3.8072 H
13 H13	-1.2085	-3.7491	2.5201 H
14 C14	-0.2231	-2.7506	-1.5787 C
15 C15	-0.2468	-3.3802	-0.1708 C
16 C16	0.9075	-1.2255	-0.0708 C
17 C17	0.9662	-1.7685	-1.5251 C
18 H18	-0.1121	-3.5015	-2.3665 H
19 H19	-1.1530	-2.2012	-1.7566 H
20 H20	0.3318	-4.3158	-0.1430 H
21 H21	-1.2695	-3.6091	0.1482 H
22 H22	1.8978	-0.9358	0.2950 H
23 H23	0.9066	-0.9754	-2.2759 H
24 H24	1.9171	-2.2953	-1.6639 H
25 C25	-2.7804	3.9729	-0.4284 C
26 H26	-2.6529	4.0755	0.6661 H
27 O27	-1.8501	3.5498	-1.1237 O
28 C28	-4.1259	4.3768	-0.9628 C
29 H29	-4.3319	5.4262	-0.7129 H
30 H30	-4.1627	4.2434	-2.0460 H
31 H31	-4.9154	3.7776	-0.4900 H
32 C32	-2.0714	4.8196	-0.5002 C
33 H33	-2.1814	4.7104	-1.5959 H
34 O34	-1.0133	4.4972	0.0516 O
35 C35	-3.2715	5.3700	0.2180 C
36 H36	-4.1433	4.7248	0.0459 H
37 H37	-3.0752	5.4436	1.2898 H
38 H38	-3.5276	6.3612	-0.1793 H
39 C39	-1.1130	5.3028	-0.6441 C
40 H40	-1.1784	5.3222	0.4604 H
41 O41	-0.8667	4.2435	-1.2318 O
42 C42	-1.3409	6.6216	-1.3282 C
43 H43	-0.6088	7.3608	-0.9764 H
44 H44	-1.2582	6.5098	-2.4113 H
45 H45	-2.3344	7.0129	-1.0723 H
46 C46	-2.7068	3.1715	-1.8625 C
47 H47	-2.1111	3.0448	-2.7864 H
48 O48	-2.1396	3.3585	-0.7802 O
49 C49	-4.1975	3.0983	-2.0398 C
50 H50	-4.4791	2.1291	-2.4726 H
51 H51	-4.7035	3.2333	-1.0815 H
52 H52	-4.5322	3.8699	-2.7458 H
53 C53	-1.0510	4.9666	-2.1391 C
54 H54	-1.2474	5.6763	-1.3131 H
55 O55	-0.7808	3.7862	-1.8909 O
56 C56	-1.1396	5.5457	-3.5233 C
57 H57	-0.4246	6.3719	-3.6334 H
58 H58	-0.9326	4.7787	-4.2725 H
59 H59	-2.1394	5.9671	-3.6930 H
60 C60	-1.4600	2.9169	-2.9503 C
61 H61	-2.4218	2.5780	-2.5206 H
62 O62	-0.6135	3.4543	-2.2273 O
63 C63	-1.2891	2.6739	-4.4236 C
64 H64	-2.0867	3.1789	-4.9846 H
65 H65	-0.3162	3.0377	-4.7608 H
66 H66	-1.3781	1.6014	-4.6422 H
67 C67	-2.8520	3.4467	1.9510 C
68 H68	-3.9562	3.4872	1.8900 H
69 O69	-2.1845	3.1927	0.9420 O
70 C70	-2.2696	3.7164	3.3101 C
71 H71	-2.6580	2.9915	4.0379 H
72 H72	-1.1797	3.6562	3.2778 H
73 H73	-2.5742	4.7115	3.6607 H
74 C74	-1.6669	4.1326	-2.1205 C
75 H75	-2.2368	4.4475	-1.2257 H
76 O76	-0.4878	3.7782	-2.0112 O
77 C77	-2.4255	4.1747	-3.4174 C
78 H78	-2.7879	5.1933	-3.6099 H
79 H79	-1.7892	3.8492	-4.2431 H
80 H80	-3.3117	3.5291	-3.3576 H
81 C81	-0.9936	4.6914	2.7068 C
82 H82	-0.9885	4.3378	3.7554 H
83 O83	-0.7972	3.8939	1.7829 O
84 C84	-1.2494	6.1608	2.5217 C
85 H85	-0.4882	6.7466	3.0540 H
86 H86	-1.2370	6.4204	1.4610 H
87 H87	-2.2202	6.4328	2.9569 H
88 C88	1.7653	5.1120	-1.3202 C
89 H89	1.7614	4.6866	-2.3417 H
90 O90	1.2329	4.4958	-0.3902 O
91 C91	2.4458	6.4446	-1.1778 C
92 H92	1.9664	7.1851	-1.8319 H
93 H93	2.4025	6.7872	-0.1418 H
94 H94	3.4934	6.3697	-1.4984 H
95 C95	1.2149	5.0889	0.4708 C
96 H96	1.7825	5.0246	-0.4769 H
97 O97	0.0423	4.7007	0.5185 O
98 C98	1.9679	5.6649	1.6371 C
99 H99	2.3123	6.6803	1.3999 H
100 H100	1.3343	5.6904	2.5262 H
101 H101	2.8652	5.0653	1.8404 H
102 C102	1.5449	4.3346	-2.6939 C
103 H103	2.1161	5.0673	-2.0926 H
104 O104	0.6740	3.6390	-2.1595 O
105 C105	1.9105	4.2689	-4.1503 C
106 H106	2.9734	4.0162	-4.2617 H
107 H107	1.3001	3.5235	-4.6644 H
108 H108	1.7674	5.2510	-4.6202 H
109 C109	1.2420	5.0804	0.3721 C
110 H110	0.6595	5.1371	1.3114 H
111 O111	0.7296	4.6040	-0.6470 O
112 C112	2.6460	5.6113	0.4495 C
113 H113	3.2149	5.0645	1.2133 H
114 H114	3.1444	5.5163	-0.5175 H
115 H115	2.6346	6.6654	0.7570 H
116 C116	-0.1206	3.7696	-2.9256 C
117 H117	-0.9451	3.5502	-3.6303 H
118 O118	-0.3707	4.0623	-1.7510 O
119 C119	1.2640	3.6823	-3.5038 C
120 H120	1.3666	4.3807	-4.3450 H
121 H121	2.0117	3.9129	-2.7419 H
122 H122	1.4432	2.6756	-3.9041 H
123 C123	-1.4576	3.0021	-2.8372 C
124 H124	-0.4035	3.0035	-3.1740 H
125 O125	-1.7284	3.2042	-1.6482 O
126 C126	-2.4783	2.7439	-3.9098 C
127 H127	-2.2913	1.7704	-4.3825 H
128 H128	-3.4864	2.7606	-3.4902 H
129 H129	-2.3950	3.5012	-4.7005 H
130 C130	2.3840	3.3525	1.9287 C
131 H131	2.7841	2.4683	1.3971 H
132 O132	1.8484	4.2677	1.2934 O
133 C133	2.5455	3.3359	3.4229 C
134 H134	3.6086	3.2569	3.6868 H
135 H135	2.1245	4.2423	3.8630 H
136 H136	2.0474	2.4539	3.8468 H
137 C137	0.7926	3.3338	-3.5534 C
138 H138	1.5578	3.9713	-4.0357 H
139 O139	0.6049	3.4060	-2.3337 O
140 C140	0.0402	2.4170	-4.4767 C
141 H141	0.7386	1.7449	-4.9931 H
142 H142	-0.6909	1.8283	-3.9186 H
143 H143	-0.4713	3.0003	-5.2538 H
144 C144	1.3835	4.5243	2.0553 C
145 H145	2.3298	4.2107	2.5357 H
146 O146	1.2326	4.3880	0.8360 O
147 C147	0.3501	5.1031	2.9805 C
148 H148	0.7556	5.9841	3.4957 H
149 H149	-0.5468	5.3837	2.4243 H
150 H150	0.0888	4.3735	3.7585 H
151 C151	5.5106	-0.9898	-0.4231 C
152 H152	5.6186	-0.6446	0.6227 H
153 O153	4.4601	-1.5257	-0.7935 O
154 C154	6.7038	-0.7566	-1.3069 C
155 H155	7.5858	-1.2622	-0.8916 H
156 H156	6.5101	-1.1261	-2.3161 H
157 H157	6.9416	0.3148	-1.3453 H
158 C158	2.9199	3.6331	-0.1354 C
159 H159	2.7099	3.9785	0.8947 H
160 O160	2.0505	3.7251	-1.0092 O
161 C161	4.2948	3.0690	-0.3600 C
162 H162	4.4653	2.2130	0.3065 H
163 H163	4.4141	2.7547	-1.3990 H
164 H164	5.0563	3.8203	-0.1119 H
165 C165	-0.9386	5.0852	1.9199 C
166 H166	-1.5832	5.8025	2.4625 H
167 O167	-1.0785	4.9247	0.7022 O
168 C168	0.0731	4.3602	2.7625 C
169 H169	-0.4322	3.7983	3.5593 H
170 H170	0.6626	3.6764	2.1481 H
171 H171	0.7390	5.0804	3.2560 H
172 C172	-3.6447	-0.4506	2.2040 C
173 H173	-3.3854	-1.1367	1.3755 H
174 O174	-4.2322	0.6112	1.9685 O
175 C175	-3.2349	-0.9095	3.5753 C
176 H176	-2.1480	-1.0620	3.6133 H
177 H177	-3.5291	-0.1751	4.3281 H
178 H178	-3.6990	-1.8782	3.8036 H
179 C179	-1.8568	1.8873	4.8245 C
180 H180	-0.8949	2.4177	4.6903 H
181 O181	-2.5898	2.1653	5.7803 O
182 C182	-2.1719	0.8479	3.7855 C
183 H183	-1.3840	0.0832	3.7654 H
184 H184	-3.1349	0.3774	3.9952 H
185 H185	-2.1945	1.3061	2.7878 H
186 C186	-4.4727	2.6822	-0.8980 C
187 H187	-4.6125	2.5392	-1.9864 H
188 O188	-4.2018	3.8019	-0.4498 O
189 C189	-4.6353	1.4465	-0.0579 C
190 H190	-3.9186	0.6772	-0.3752 H
191 H191	-4.4809	1.6790	0.9979 H
192 H192	-5.6384	1.0228	-0.1998 H
193 C193	0.7569	3.8498	-2.9730 C
194 H194	1.6071	3.4899	-3.5831 H
195 O195	0.8872	3.9938	-1.7522 O
196 C196	-0.5090	4.1330	-3.7322 C
197 H197	-0.8481	3.2271	-4.2522 H
198 H198	-1.2912	4.4819	-3.0547 H
199 H199	-0.3244	4.8914	-4.5046 H
200 C200	4.0197	-3.4660	1.9495 C
201 H201	3.9781	-3.0153	2.9593 H
202 O202	3.9261	-2.7494	0.9466 O
203 C203	4.1925	-4.9587	1.9148 C
204 H204	3.3672	-5.4468	2.4502 H
205 H205	4.2232	-5.3161	0.8834 H
206 H206	5.1182	-5.2438	2.4320 H
207 C207	-1.9169	0.6983	4.1511 C
208 H208	-1.4442	-0.0120	3.4465 H
209 O209	-2.3590	0.2962	5.2332 O
210 C210	-1.9677	2.1281	3.6903 C
211 H211	-2.5196	2.2002	2.7436 H
212 H212	-2.4480	2.7557	4.4440 H
213 H213	-0.9526	2.4979	3.4943 H
214 C214	4.7568	-1.8670	1.1363 C
215 H215	4.9240	-0.8660	0.6951 H
216 O216	4.0563	-2.6960	0.5447 O
217 C217	5.4293	-2.1109	2.4582 C
218 H218	5.0882	-1.3735	3.1971 H
219 H219	5.2115	-3.1187	2.8178 H
220 H220	6.5152	-1.9810	2.3591 H
221 C221	1.9285	-6.6815	-3.6309 C
222 H222	2.4908	-6.3804	-4.5351 H
223 O223	1.1372	-5.8928	-3.1019 O
224 C224	2.2048	-8.0720	-3.1314 C
225 H225	3.2720	-8.1841	-2.8978 H
226 H226	1.6097	-8.2834	-2.2405 H
227 H227	1.9726	-8.8071	-3.9134 H
228 C228	-4.2854	0.8269	-0.6512 C
229 H229	-4.2720	0.8066	-1.7575 H
230 O230	-4.1159	1.8929	-0.0488 O
231 C231	-4.5179	-0.4994	0.0166 C
232 H232	-3.7391	-1.2140	-0.2817 H
233 H233	-4.5156	-0.3862	1.1027 H
234 H234	-5.4776	-0.9227	-0.3084 H
235 C235	-0.7873	-7.3596	-3.2524 C
236 H236	-1.1047	-7.5112	-4.3016 H
237 O237	-0.4928	-6.2280	-2.8514 O
238 C238	-0.7499	-8.5991	-2.4031 C
239 H239	-0.0652	-9.3370	-2.8420 H
240 H240	-0.4277	-8.3574	-1.3881 H
241 H241	-1.7431	-9.0666	-2.3736 H
242 C242	2.9405	-7.3230	0.0959 C
243 H243	3.4979	-7.3143	1.0518 H
244 O244	1.9545	-6.5925	-0.0533 O
245 C245	3.4699	-8.2612	-0.9523 C
246 H246	3.4700	-9.2913	-0.5716 H
247 H247	2.8624	-8.2046	-1.8580 H
248 H248	4.5123	-8.0114	-1.1908 H
249 C249	4.4665	1.5110	-0.8098 C
250 H250	4.4612	1.9214	0.2179 H
251 O251	3.9533	0.4103	-1.0402 O
252 C252	5.1244	2.3764	-1.8477 C
253 H253	6.1705	2.5665	-1.5728 H
254 H254	5.0838	1.8960	-2.8276 H
255 H255	4.6266	3.3540	-1.8950 H
256 C256	4.8188	-1.2493	-3.0943 C
257 H257	3.9723	-0.6272	-3.4421 H
258 O258	4.6058	-2.2734	-2.4356 O
259 C259	6.1849	-0.7552	-3.4799 C
260 H260	6.3463	0.2563	-3.0839 H
261 H261	6.9564	-1.4267	-3.0971 H
262 H262	6.2663	-0.6844	-4.5727 H
263 C263	2.4656	4.0743	1.1923 C
264 H264	2.7066	3.7204	0.1719 H
265 O265	1.5416	3.5532	1.8270 O
266 C266	3.3260	5.1937	1.7079 C
267 H267	3.2536	6.0634	1.0412 H
268 H268	3.0194	5.4780	2.7168 H
269 H269	4.3803	4.8869	1.7152 H
270 C270	5.3190	-2.3801	-1.6846 C
271 H271	5.2031	-1.5193	-2.3703 H
272 O272	4.5174	-3.3200	-1.7289 O
273 C273	6.4862	-2.3018	-0.7409 C
274 H274	6.4067	-1.4022	-0.1159 H
275 H275	6.5236	-3.1886	-0.1047 H
276 H276	7.4235	-2.2131	-1.3061 H
277 C277	-5.6859	1.3765	0.0065 C
278 H278	-5.8959	1.7220	1.0366 H
279 O279	-6.5553	1.4686	-0.8674 O
280 C280	-4.3110	0.8124	-0.2181 C
281 H281	-4.1405	-0.0436	0.4484 H
282 H282	-4.1917	0.4982	-1.2571 H
283 H283	-3.5495	1.5637	0.0300 H
284 C284	1.9927	-7.5270	-1.5522 C
285 H285	2.8603	-8.1928	-1.3833 H
286 O286	1.9639	-6.4038	-1.0368 O
287 C287	0.9063	-8.0902	-2.4249 C
288 H288	0.5169	-9.0204	-1.9900 H
289 H289	0.0938	-7.3692	-2.5372 H
290 H290	1.3109	-8.3473	-3.4129 H
291 C291	0.5665	-6.7366	-3.2061 C
292 H292	-0.2738	-7.2787	-3.6803 H
293 O293	0.4845	-6.3762	-2.0266 O
294 C294	1.7581	-6.4924	-4.0890 C
295 H295	1.4605	-5.9127	-4.9730 H
296 H296	2.5353	-5.9546	-3.5420 H
297 H297	2.1581	-7.4469	-4.4560 H
298 C298	-0.4526	-7.4492	-0.0778 C
299 H299	-0.1678	-6.9452	-1.0210 H
300 O300	-0.1915	-6.9225	1.0096 O
301 C301	-1.1526	-8.7697	-0.2367 C
302 H302	-0.5165	-9.4695	-0.7949 H
303 H303	-1.3956	-9.1935	0.7400 H
304 H304	-2.0725	-8.6414	-0.8226 H
305 C305	2.0509	-1.4123	-5.9135 C
306 H306	2.1613	-0.3681	-6.2631 H
307 O307	2.1070	-1.6707	-4.7060 O
308 C308	1.8369	-2.4359	-6.9931 C
309 H309	2.6778	-2.4212	-7.6993 H
310 H310	1.7387	-3.4335	-6.5599 H
311 H311	0.9345	-2.1934	-7.5698 H
312 C312	-4.8478	3.1889	-1.0040 C
313 H313	-4.2957	4.0596	-1.4060 H
314 O314	-6.0512	3.0507	-1.2505 O
315 C315	-4.0357	2.2374	-0.1709 C
316 H316	-3.5996	2.7650	0.6878 H
317 H317	-4.6576	1.4122	0.1825 H
318 H318	-3.1970	1.8419	-0.7591 H
319 C319	4.7121	-1.9351	5.0934 C
320 H320	5.2699	-1.0250	4.8017 H
321 O321	4.5223	-2.1894	6.2881 O
322 C322	4.2309	-2.7905	3.9550 C
323 H323	5.0818	-3.1181	3.3430 H
324 H324	3.6931	-3.6626	4.3329 H
325 H325	3.5728	-2.2078	3.2968 H
326 C326	-4.3959	3.7680	-0.4479 C
327 H327	-4.5528	4.1630	0.5739 H
328 O328	-5.1186	4.1467	-1.3765 O
329 C329	-3.2757	2.7763	-0.5922 C
330 H330	-3.4499	1.9120	0.0626 H
331 H331	-3.1930	2.4411	-1.6282 H
332 H332	-2.3273	3.2289	-0.2738 H
333 C333	4.5499	-5.1081	0.9821 C
334 H334	4.8392	-5.3953	2.0109 H
335 O335	4.4158	-5.9749	0.1112 O
336 C336	4.3454	-3.6363	0.7555 C
337 H337	5.2649	-3.0860	0.9956 H
338 H338	4.0632	-3.4449	-0.2819 H
339 H339	3.5641	-3.2559	1.4268 H
340 C340	-4.7948	0.8647	-2.8665 C
341 H341	-5.2641	0.0567	-3.4593 H
342 O342	-5.0329	2.0478	-3.1337 O
343 C343	-3.8852	0.4093	-1.7600 C
344 H344	-3.0706	-0.2032	-2.1688 H
345 H345	-3.4682	1.2683	-1.2300 H
346 H346	-4.4370	-0.2269	-1.0553 H
347 C347	-5.8758	-2.8758	-1.1771 C
348 H348	-6.0879	-3.8490	-0.6950 H
349 O349	-6.6063	-2.4611	-2.0839 O
350 C350	-4.6742	-2.1422	-0.6506 C
351 H351	-3.7739	-2.7604	-0.7661 H
352 H352	-4.5409	-1.1969	-1.1808 H
353 H353	-4.7906	-1.9495	0.4242 H
354 C354	5.9198	-1.2980	3.0701 C
355 H355	6.5471	-2.0037	2.4930 H
356 O356	6.1723	-1.0743	4.2593 O
357 C357	4.7874	-0.6684	2.3083 C
358 H358	4.1180	-1.4456	1.9160 H
359 H359	4.2241	0.0103	2.9523 H
360 H360	5.1757	-0.1176	1.4414 H
@<TRIPOS>BOND
1 1 2 2
2 1 3 1
3 1 16 1
4 3 4 1
5 5 9 1
6 5 15 1
7 5 16 1
8 6 7 1
9 6 8 1
10 6 9 2
11 9 10 1
12 10 11 1
13 10 12 1
14 10 13 1
15 14 15 1
16 14 17 1
17 14 18 1
18 14 19 1
19 15 20 1
20 15 21 1
21 16 17 1
22 16 22 1
23 17 23 1
24 17 24 1
25 25 26 1
26 25 27 2
27 25 28 1
28 28 29 1
29 28 30 1
30 28 31 1
31 32 33 1
32 32 34 2
33 32 35 1
34 35 36 1
35 35 37 1
36 35 38 1
37 39 40 1
38 39 41 2
39 39 42 1
40 42 43 1
41 42 44 1
42 42 45 1
43 46 47 1
44 46 48 2
45 46 49 1
46 49 50 1
47 49 51 1
48 49 52 1
49 53 54 1
50 53 55 2
51 53 56 1
52 56 57 1
53 56 58 1
54 56 59 1
55 60 61 1
56 60 62 2
57 60 63 1
58 63 64 1
59 63 65 1
60 63 66 1
61 67 68 1
62 67 69 2
63 67 70 1
64 70 71 1
65 70 72 1
66 70 73 1
67 74 75 1
68 74 76 2
69 74 77 1
70 77 78 1
71 77 79 1
72 77 80 1
73 81 82 1
74 81 83 2
75 81 84 1
76 84 85 1
77 84 86 1
78 84 87 1
79 88 89 1
80 88 90 2
81 88 91 1
82 91 92 1
83 91 93 1
84 91 94 1
85 95 96 1
86 95 97 2
87 95 98 1
88 98 99 1
89 98 100 1
90 98 101 1
91 102 103 1
92 102 104 2
93 102 105 1
94 105 106 1
95 105 107 1
96 105 108 1
97 109 110 1
98 109 111 2
99 109 112 1
100 112 113 1
101 112 114 1
102 112 115 1
103 116 117 1
104 116 118 2
105 116 119 1
106 119 120 1
107 119 121 1
108 119 122 1
109 123 124 1
110 123 125 2
111 123 126 1
112 126 127 1
113 126 128 1
114 126 129 1
115 130 131 1
116 130 132 2
117 130 133 1
118 133 134 1
119 133 135 1
120 133 136 1
121 137 138 1
122 137 139 2
123 137 140 1
124 140 141 1
125 140 142 1
126 140 143 1
127 144 145 1
128 144 146 2
129 144 147 1
130 147 148 1
131 147 149 1
132 147 150 1
133 151 152 1
134 151 153 2
135 151 154 1
136 154 155 1
137 154 156 1
138 154 157 1
139 158 159 1
140 158 160 2
141 158 161 1
142 161 162 1
143 161 163 1
144 161 164 1
145 165 166 1
146 165 167 2
147 165 168 1
148 168 169 1
149 168 170 1
150 168 171 1
151 172 173 1
152 172 174 2
153 172 175 1
154 175 176 1
155 175 177 1
156 175 178 1
157 179 180 1
158 179 181 2
159 179 182 1
160 182 183 1
161 182 184 1
162 182 185 1
163 186 187 1
164 186 188 2
165 186 189 1
166 189 190 1
167 189 191 1
168 189 192 1
169 193 194 1
170 193 195 2
171 193 196 1
172 196 197 1
173 196 198 1
174 196 199 1
175 200 201 1
176 200 202 2
177 200 203 1
178 203 204 1
179 203 205 1
180 203 206 1
181 207 208 1
182 207 209 2
183 207 210 1
184 210 211 1
185 210 212 1
186 210 213 1
187 214 215 1
188 214 216 2
189 214 217 1
190 217 218 1
191 217 219 1
192 217 220 1
193 221 222 1
194 221 223 2
195 221 224 1
196 224 225 1
197 224 226 1
198 224 227 1
199 228 229 1
200 228 230 2
201 228 231 1
202 231 232 1
203 231 233 1
204 231 234 1
205 235 236 1
206 235 237 2
207 235 238 1
208 238 239 1
209 238 240 1
210 238 241 1
211 242 243 1
212 242 244 2
213 242 245 1
214 245 246 1
215 245 247 1
216 245 248 1
217 249 250 1
218 249 251 2
219 249 252 1
220 252 253 1
221 252 254 1
222 252 255 1
223 256 257 1
224 256 258 2
225 256 259 1
226 259 260 1
227 259 261 1
228 259 262 1
229 263 264 1
230 263 265 2
231 263 266 1
232 266 267 1
233 266 268 1
234 266 269 1
235 270 271 1
236 270 272 2
237 270 273 1
238 273 274 1
239 273 275 1
240 273 276 1
241 277 278 1
242 277 279 2
243 277 280 1
244 280 281 1
245 280 282 1
246 280 283 1
247 284 285 1
248 284 286 2
249 284 287 1
250 287 288 1
251 287 289 1
252 287 290 1
253 291 292 1
254 291 293 2
255 291 294 1
256 294 295 1
257 294 296 1
258 294 297 1
259 298 299 1
260 298 300 2
261 298 301 1
262 301 302 1
263 301 303 1
264 301 304 1
265 305 306 1
266 305 307 2
267 305 308 1
268 308 309 1
269 308 310 1
270 308 311 1
271 312 313 1
272 312 314 2
273 312 315 1
274 315 316 1
275 315 317 1
276 315 318 1
277 319 320 1
278 319 321 2
279 319 322 1
280 322 323 1
281 322 324 1
282 322 325 1
283 326 327 1
284 326 328 2
285 326 329 1
286 329 330 1
287 329 331 1
288 329 332 1
289 333 334 1
290 333 335 2
291 333 336 1
292 336 337 1
293 336 338 1
294 336 339 1
295 340 341 1
296 340 342 2
297 340 343 1
298 343 344 1
299 343 345 1
300 343 346 1
301 347 348 1
302 347 349 2
303 347 350 1
304 350 351 1
305 350 352 1
306 350 353 1
307 354 355 1
308 354 356 2
309 354 357 1
310 357 358 1
311 357 359 1
312 357 360 1
