@<TRIPOS>MOLECULE
Molecule Name
367 318
SMALL
NO_CHARGES

@<TRIPOS>ATOM
1 C1	0.0000	0.0000	0.0000 C
2 O2	-1.2352	0.0000	0.0000 O
3 O3	0.7399	1.1583	0.0000 O
4 H4	0.1638	1.9547	-0.0136 H
5 N5	0.3618	-2.3516	0.6968 N
6 C6	0.6236	-1.2327	2.8274 C
7 H7	1.0417	-0.3277	2.4033 H
8 H8	0.5098	-1.2549	3.9040 H
9 C9	0.2486	-2.3067	2.0853 C
10 C10	-0.3264	-3.5428	2.7432 C
11 H11	0.3266	-4.4148	2.6123 H
12 H12	-0.4488	-3.3745	3.8150 H
13 H13	-1.3053	-3.8042	2.3235 H
14 C14	0.9635	-3.2876	-1.3828 C
15 C15	0.0625	-3.5197	-0.1590 C
16 C16	0.9004	-1.2272	-0.0650 C
17 C17	0.9789	-1.7521	-1.5343 C
18 H18	1.9734	-3.6610	-1.1787 H
19 H19	0.5887	-3.7882	-2.2798 H
20 H20	0.2965	-4.4545	0.3543 H
21 H21	-0.9988	-3.5459	-0.4478 H
22 H22	1.8907	-0.9373	0.3079 H
23 H23	0.0972	-1.4225	-2.0955 H
24 H24	1.8674	-1.3764	-2.0462 H
25 C25	-2.9409	3.0347	1.3352 C
26 H26	-3.6465	2.2944	0.9125 H
27 O27	-2.0612	3.5299	0.6218 O
28 C28	-3.1438	3.3647	2.7874 C
29 H29	-3.0577	2.4552	3.3969 H
30 H30	-2.4074	4.0998	3.1189 H
31 H31	-4.1563	3.7586	2.9472 H
32 C32	-1.5746	4.5629	2.0576 C
33 H33	-1.8149	5.6338	2.1994 H
34 O34	-1.3177	4.1297	0.9287 O
35 C35	-1.5897	3.7265	3.3063 C
36 H36	-2.5793	3.7732	3.7801 H
37 H37	-1.3425	2.6885	3.0741 H
38 H38	-0.8704	4.1231	4.0351 H
39 C39	-2.4531	4.3067	-0.0224 C
40 H40	-2.2520	4.1003	1.0460 H
41 O41	-1.7299	3.8142	-0.8955 O
42 C42	-3.6310	5.1988	-0.2976 C
43 H43	-3.4927	6.1699	0.1962 H
44 H44	-3.7549	5.3478	-1.3724 H
45 H45	-4.5450	4.7575	0.1216 H
46 C46	-2.3449	3.8239	0.4847 C
47 H47	-2.6598	3.4909	-0.5225 H
48 O48	-1.2146	4.2940	0.6569 O
49 C49	-3.3712	3.6583	1.5702 C
50 H50	-3.6616	2.6028	1.6574 H
51 H51	-2.9773	4.0108	2.5258 H
52 H52	-4.2818	4.2176	1.3173 H
53 C53	-0.6529	5.2990	1.8832 C
54 H54	-1.1900	6.2497	1.7035 H
55 O55	-0.4971	4.4912	0.9606 O
56 C56	-0.1552	5.0935	3.2865 C
57 H57	-0.9949	5.1261	3.9935 H
58 H58	0.3602	4.1346	3.3727 H
59 H59	0.5276	5.9062	3.5678 H
60 C60	-1.3375	5.2407	-0.6784 C
61 H61	-1.5794	5.2188	0.4012 H
62 O62	-0.9264	4.2204	-1.2422 O
63 C63	-1.5461	6.5637	-1.3605 C
64 H64	-0.9336	7.3376	-0.8788 H
65 H65	-1.2841	6.4939	-2.4184 H
66 H66	-2.5929	6.8797	-1.2596 H
67 C67	-2.7468	3.7270	-1.5551 C
68 H68	-2.3153	3.5484	-2.5583 H
69 O69	-2.0502	3.5766	-0.5451 O
70 C70	-4.1893	4.1490	-1.5380 C
71 H71	-4.8118	3.3857	-2.0238 H
72 H72	-4.5306	4.3026	-0.5121 H
73 H73	-4.3184	5.0758	-2.1127 H
74 C74	-2.4789	4.8776	0.6805 C
75 H75	-2.9462	5.2832	-0.2369 H
76 O76	-1.5152	4.1080	0.5968 O
77 C77	-3.0966	5.3291	1.9742 C
78 H78	-4.1580	5.0486	2.0040 H
79 H79	-2.5750	4.8824	2.8233 H
80 H80	-3.0559	6.4238	2.0503 H
81 C81	0.4698	4.3166	2.5635 C
82 H82	0.9782	4.9842	3.2849 H
83 O83	0.8393	4.2820	1.3844 O
84 C84	-0.6571	3.4962	3.1257 C
85 H85	-1.4268	4.1536	3.5517 H
86 H86	-1.0990	2.8697	2.3480 H
87 H87	-0.2913	2.8638	3.9455 H
88 C88	-1.1167	3.9177	-2.5621 C
89 H89	-0.4702	3.1423	-3.0152 H
90 O90	-1.3002	3.9348	-1.3397 O
91 C91	-1.7208	4.8996	-3.5264 C
92 H92	-2.3289	4.3708	-4.2725 H
93 H93	-2.3405	5.6252	-2.9952 H
94 H94	-0.9286	5.4239	-4.0773 H
95 C95	-0.3688	3.4114	-3.2376 C
96 H96	-0.9220	3.7268	-4.1427 H
97 O97	-0.7532	3.7717	-2.1194 O
98 C98	0.8349	2.5459	-3.4849 C
99 H99	1.5507	3.0706	-4.1318 H
100 H100	1.3173	2.2832	-2.5411 H
101 H101	0.5396	1.6311	-4.0157 H
102 C102	-4.0948	-1.9273	1.7149 C
103 H103	-3.1099	-1.5309	1.4027 H
104 O104	-4.4613	-3.0453	1.3357 O
105 C105	-4.9046	-1.0218	2.6000 C
106 H106	-5.0897	-0.0653	2.0933 H
107 H107	-5.8564	-1.4908	2.8581 H
108 H108	-4.3459	-0.7917	3.5170 H
109 C109	-0.8158	5.6729	0.1675 C
110 H110	-0.4876	6.0375	-0.8244 H
111 O111	-1.0176	4.4669	0.3489 O
112 C112	-0.9846	6.7312	1.2214 C
113 H113	-1.7216	7.4764	0.8935 H
114 H114	-1.3087	6.2842	2.1636 H
115 H115	-0.0382	7.2671	1.3734 H
116 C116	0.6437	4.1724	2.1928 C
117 H117	1.1772	3.2414	2.4630 H
118 O118	0.5718	4.5246	1.0100 O
119 C119	0.0442	4.9308	3.3437 C
120 H120	0.8271	5.2069	4.0626 H
121 H121	-0.4604	5.8311	2.9868 H
122 H122	-0.6713	4.2957	3.8826 H
123 C123	-2.0062	3.8947	1.2411 C
124 H124	-1.1289	3.6285	1.8607 H
125 O125	-1.9508	3.7895	0.0107 O
126 C126	-3.2122	4.3726	2.0002 C
127 H127	-2.9573	5.2608	2.5936 H
128 H128	-4.0265	4.6117	1.3129 H
129 H129	-3.5420	3.6017	2.7093 H
130 C130	-1.6407	3.0945	-2.2611 C
131 H131	-2.3088	2.9787	-1.3865 H
132 O132	-0.5403	3.6427	-2.1321 O
133 C133	-2.1722	2.5489	-3.5568 C
134 H134	-3.1218	3.0384	-3.8114 H
135 H135	-1.4512	2.7054	-4.3619 H
136 H136	-2.3857	1.4765	-3.4557 H
137 C137	-0.6669	5.1531	-1.3587 C
138 H138	-0.2481	4.9032	-2.3521 H
139 O139	-0.1309	4.7187	-0.3331 O
140 C140	-1.8893	6.0276	-1.3743 C
141 H141	-2.6915	5.5451	-1.9485 H
142 H142	-2.2328	6.2226	-0.3561 H
143 H143	-1.6671	6.9781	-1.8773 H
144 C144	-0.7157	5.2096	1.4666 C
145 H145	-0.4709	5.0441	2.5330 H
146 O146	-1.1666	4.2835	0.7833 O
147 C147	-0.4603	6.5990	0.9532 C
148 H148	0.5981	6.8612	1.0839 H
149 H149	-0.7289	6.6717	-0.1028 H
150 H150	-1.0414	7.3284	1.5329 H
151 C151	-0.4653	3.7468	-3.5139 C
152 H152	-0.7625	4.7858	-3.7522 H
153 O153	-0.5089	3.3420	-2.3468 O
154 C154	-0.0255	2.9155	-4.6864 C
155 H155	0.8318	3.3882	-5.1839 H
156 H156	0.2479	1.9096	-4.3607 H
157 H157	-0.8308	2.8564	-5.4306 H
158 C158	1.2677	5.1105	-0.0932 C
159 H159	0.8371	5.2682	0.9139 H
160 O160	0.6037	4.5457	-0.9696 O
161 C161	2.6676	5.6230	-0.2848 C
162 H162	3.3467	5.1438	0.4330 H
163 H163	3.0109	5.4260	-1.3026 H
164 H164	2.7053	6.7021	-0.0850 H
165 C165	-3.5389	3.4396	-0.8346 C
166 H166	-3.6205	3.7780	0.2158 H
167 O167	-2.9893	4.1589	-1.6764 O
168 C168	-4.1305	2.0891	-1.1262 C
169 H169	-5.1980	2.0809	-0.8686 H
170 H170	-4.0056	1.8367	-2.1813 H
171 H171	-3.6485	1.3234	-0.5040 H
172 C172	-1.6375	4.4023	-0.5947 C
173 H173	-1.6640	4.5431	0.5026 H
174 O174	-0.5551	4.3866	-1.1915 O
175 C175	-2.9765	4.2399	-1.2579 C
176 H176	-3.6038	5.1198	-1.0625 H
177 H177	-2.8560	4.1069	-2.3351 H
178 H178	-3.5044	3.3744	-0.8359 H
179 C179	-3.0062	-2.9686	-3.8396 C
180 H180	-3.9579	-2.6870	-3.3500 H
181 O181	-1.9914	-3.1571	-3.1594 O
182 C182	-3.0620	-3.0938	-5.3363 C
183 H183	-3.3836	-2.1436	-5.7830 H
184 H184	-2.0838	-3.3736	-5.7332 H
185 H185	-3.8067	-3.8476	-5.6247 H
186 C186	-3.0218	3.4867	-1.4628 C
187 H187	-3.4270	3.7267	-0.4614 H
188 O188	-2.0054	2.7914	-1.5698 O
189 C189	-3.7870	4.0584	-2.6233 C
190 H190	-3.8263	5.1533	-2.5470 H
191 H191	-3.3189	3.7728	-3.5677 H
192 H192	-4.8254	3.7019	-2.6033 H
193 C193	-1.5997	2.5986	-2.9850 C
194 H194	-1.1239	3.2643	-3.7300 H
195 O195	-1.7217	2.9686	-1.8118 O
196 C196	-2.0609	1.2676	-3.5091 C
197 H197	-1.2132	0.7160	-3.9370 H
198 H198	-2.5161	0.6789	-2.7098 H
199 H199	-2.7868	1.4121	-4.3203 H
200 C200	-4.9686	-0.6265	2.5863 C
201 H201	-4.3822	-0.1024	3.3648 H
202 O202	-6.0885	-1.0771	2.8522 O
203 C203	-4.3067	-0.7330	1.2411 C
204 H204	-3.3491	-1.2628	1.3323 H
205 H205	-4.9532	-1.2620	0.5377 H
206 H206	-4.0790	0.2682	0.8519 H
207 C207	-4.0914	-0.3256	0.1616 C
208 H208	-3.8849	-0.7009	-0.8588 H
209 O209	-4.3850	0.8623	0.3373 O
210 C210	-3.9861	-1.3468	1.2593 C
211 H211	-2.9776	-1.7814	1.2752 H
212 H212	-4.2050	-0.8914	2.2274 H
213 H213	-4.6845	-2.1737	1.0740 H
214 C214	3.9576	-5.7024	0.9673 C
215 H215	3.8106	-5.4731	2.0398 H
216 O216	2.9799	-5.8625	0.2281 O
217 C217	5.3885	-5.7960	0.5169 C
218 H218	5.9134	-6.5747	1.0862 H
219 H219	5.4393	-6.0241	-0.5499 H
220 H220	5.9101	-4.8508	0.7175 H
221 C221	0.3454	4.5228	-1.9692 C
222 H222	0.0604	4.0741	-2.9398 H
223 O223	-0.4443	4.4964	-1.0186 O
224 C224	1.7162	5.1372	-1.9190 C
225 H225	1.8035	5.9280	-2.6760 H
226 H226	1.9125	5.5536	-0.9288 H
227 H227	2.4771	4.3828	-2.1597 H
228 C228	-0.9156	-7.8962	1.0538 C
229 H229	-0.8036	-8.0256	-0.0395 H
230 O230	-0.3864	-6.9340	1.6214 O
231 C231	-1.7319	-8.9495	1.7488 C
232 H232	-1.2865	-9.9402	1.5870 H
233 H233	-1.7898	-8.7436	2.8197 H
234 H234	-2.7440	-8.9840	1.3244 H
235 C235	5.0125	-1.6404	0.1219 C
236 H236	4.9760	-0.8398	-0.6412 H
237 O237	4.2867	-2.6349	0.0118 O
238 C238	5.9807	-1.4148	1.2492 C
239 H239	5.7375	-0.4816	1.7747 H
240 H240	5.9507	-2.2503	1.9518 H
241 H241	6.9992	-1.3003	0.8550 H
242 C242	5.7892	-2.2069	-2.4648 C
243 H243	6.2803	-3.0677	-1.9724 H
244 O244	4.5814	-2.0037	-2.2978 O
245 C245	6.6861	-1.3504	-3.3141 C
246 H246	7.1448	-1.9552	-4.1077 H
247 H247	6.1208	-0.5288	-3.7589 H
248 H248	7.5080	-0.9473	-2.7077 H
249 C249	4.4990	-1.8094	1.5374 C
250 H250	3.9547	-1.2337	2.3100 H
251 O251	3.9368	-2.7375	0.9454 O
252 C252	5.9169	-1.3772	1.2887 C
253 H253	6.5020	-1.4505	2.2151 H
254 H254	6.3753	-1.9967	0.5149 H
255 H255	5.9418	-0.3234	0.9808 H
256 C256	3.4488	-4.6614	3.5357 C
257 H257	2.6149	-4.4314	4.2258 H
258 O258	3.2311	-5.2688	2.4814 O
259 C259	4.8045	-4.1883	3.9801 C
260 H260	5.0599	-4.6330	4.9513 H
261 H261	5.5637	-4.4566	3.2425 H
262 H262	4.7965	-3.0995	4.1224 H
263 C263	4.3024	-4.2033	1.0533 C
264 H264	4.3865	-3.3698	1.7764 H
265 O265	3.2617	-4.8675	0.9915 O
266 C266	5.5140	-4.4393	0.1957 C
267 H267	6.3881	-4.6490	0.8267 H
268 H268	5.3434	-5.2761	-0.4849 H
269 H269	5.7496	-3.5357	-0.3819 H
270 C270	-2.1787	-1.8707	-4.0353 C
271 H271	-1.3000	-1.4055	-4.5211 H
272 O272	-2.0574	-2.9413	-3.4295 O
273 C273	-3.4701	-1.1145	-4.1752 C
274 H274	-3.7203	-0.9876	-5.2370 H
275 H275	-4.2797	-1.6434	-3.6679 H
276 H276	-3.3653	-0.1067	-3.7517 H
277 C277	-2.5107	-7.0385	0.0742 C
278 H278	-1.8798	-7.5963	-0.6437 H
279 O279	-2.1627	-5.9186	0.4652 O
280 C280	-3.7689	-7.7373	0.5075 C
281 H281	-3.5240	-8.6998	0.9761 H
282 H282	-4.3272	-7.1174	1.2122 H
283 H283	-4.3966	-7.9605	-0.3655 H
284 C284	-4.0975	2.8367	2.7090 C
285 H285	-3.9222	3.6499	1.9792 H
286 O286	-5.0544	2.8996	3.4889 O
287 C287	-3.1102	1.7043	2.6640 C
288 H288	-2.0944	2.0817	2.8421 H
289 H289	-3.3586	0.9506	3.4142 H
290 H290	-3.1073	1.2453	1.6664 H
291 C291	-4.5759	3.6175	0.0232 C
292 H292	-4.6138	3.8146	1.1114 H
293 O293	-5.5793	3.8005	-0.6751 O
294 C294	-3.2537	3.1300	-0.4995 C
295 H295	-2.9687	2.1974	0.0056 H
296 H296	-3.3070	2.9623	-1.5772 H
297 H297	-2.4668	3.8633	-0.2785 H
298 C298	-2.8649	-4.8541	-3.2168 C
299 H299	-3.6941	-4.6016	-2.5288 H
300 O300	-1.9568	-4.0399	-3.4179 O
301 C301	-2.9439	-6.2139	-3.8521 C
302 H302	-3.8761	-6.3096	-4.4246 H
303 H303	-2.0894	-6.3777	-4.5121 H
304 H304	-2.9665	-6.9919	-3.0775 H
305 C305	-3.0266	0.3249	5.4682 C
306 H306	-2.2299	1.0749	5.3031 H
307 O307	-3.6965	0.3508	6.5067 O
308 C308	-3.2080	-0.6787	4.3641 C
309 H309	-2.2743	-1.2333	4.2009 H
310 H310	-4.0113	-1.3765	4.6100 H
311 H311	-3.4406	-0.1653	3.4217 H
312 C312	-4.4351	-0.1093	-3.7012 C
313 H313	-4.9068	-1.1102	-3.6869 H
314 O314	-5.0615	0.8649	-4.1331 O
315 C315	-3.0297	-0.0497	-3.1716 C
316 H316	-2.3794	-0.7191	-3.7505 H
317 H317	-2.6448	0.9709	-3.2230 H
318 H318	-3.0027	-0.4026	-2.1321 H
319 C319	-1.0361	1.1973	5.1948 C
320 H320	-1.1340	1.0009	4.1102 H
321 O321	-0.9116	0.2561	5.9864 O
322 C322	-1.0671	2.6459	5.5944 C
323 H323	-2.0089	3.1074	5.2686 H
324 H324	-0.9645	2.7461	6.6770 H
325 H325	-0.2567	3.1929	5.0946 H
326 C326	3.8669	3.4048	0.9572 C
327 H327	4.7986	3.7928	0.5034 H
328 O328	2.9205	4.1686	1.1787 O
329 C329	3.8615	1.9333	1.2636 C
330 H330	4.6804	1.6883	1.9531 H
331 H331	2.9079	1.6385	1.7067 H
332 H332	4.0364	1.3559	0.3461 H
333 C333	-2.1046	1.8495	4.9510 C
334 H334	-3.2077	1.7992	5.0235 H
335 O335	-1.4256	2.0524	5.9637 O
336 C336	-1.5384	1.6572	3.5720 C
337 H337	-1.9398	2.4182	2.8895 H
338 H338	-0.4485	1.7220	3.5939 H
339 H339	-1.8422	0.6808	3.1719 H
340 C340	-2.5890	0.0232	5.1608 C
341 H341	-2.1027	1.0136	5.0760 H
342 O342	-1.9019	-0.9947	5.3010 O
343 C343	-4.0905	0.0328	5.0927 C
344 H344	-4.4226	0.4730	4.1430 H
345 H345	-4.4839	-0.9818	5.1844 H
346 H346	-4.5008	0.6616	5.8940 H
347 C347	-3.5894	-0.0090	4.3335 C
348 H348	-2.7692	0.4718	3.7674 H
349 O349	-4.4107	0.6845	4.9439 O
350 C350	-3.6092	-1.5113	4.2919 C
351 H351	-2.6671	-1.9124	4.6891 H
352 H352	-4.4477	-1.8989	4.8743 H
353 H353	-3.6889	-1.8593	3.2535 H
354 C354	-4.4373	-3.7419	-1.1425 C
355 H355	-3.7862	-3.0645	-1.7271 H
356 O356	-4.9752	-4.7104	-1.6909 O
357 C357	-4.5975	-3.3900	0.3099 C
358 H358	-5.0146	-2.3790	0.4096 H
359 H359	-5.2528	-4.1082	0.8072 H
360 H360	-3.6179	-3.3790	0.8060 H
361 C361	4.9278	2.4086	-1.4031 C
362 H362	5.4313	2.9428	-0.5750 H
363 O363	4.6896	2.9952	-2.4647 O
364 C364	4.5784	0.9729	-1.1279 C
365 H365	3.9168	0.9061	-0.2539 H
366 H366	4.0874	0.5260	-1.9949 H
367 H367	5.4851	0.4038	-0.8831 H
@<TRIPOS>BOND
1 1 2 2
2 1 3 1
3 1 16 1
4 3 4 1
5 5 9 1
6 5 15 1
7 5 16 1
8 6 7 1
9 6 8 1
10 6 9 2
11 9 10 1
12 10 11 1
13 10 12 1
14 10 13 1
15 14 15 1
16 14 17 1
17 14 18 1
18 14 19 1
19 15 20 1
20 15 21 1
21 16 17 1
22 16 22 1
23 17 23 1
24 17 24 1
25 25 26 1
26 25 27 2
27 25 28 1
28 28 29 1
29 28 30 1
30 28 31 1
31 32 33 1
32 32 34 2
33 32 35 1
34 35 36 1
35 35 37 1
36 35 38 1
37 39 40 1
38 39 41 2
39 39 42 1
40 42 43 1
41 42 44 1
42 42 45 1
43 46 47 1
44 46 48 2
45 46 49 1
46 49 50 1
47 49 51 1
48 49 52 1
49 53 54 1
50 53 55 2
51 53 56 1
52 56 57 1
53 56 58 1
54 56 59 1
55 60 61 1
56 60 62 2
57 60 63 1
58 63 64 1
59 63 65 1
60 63 66 1
61 67 68 1
62 67 69 2
63 67 70 1
64 70 71 1
65 70 72 1
66 70 73 1
67 74 75 1
68 74 76 2
69 74 77 1
70 77 78 1
71 77 79 1
72 77 80 1
73 81 82 1
74 81 83 2
75 81 84 1
76 84 85 1
77 84 86 1
78 84 87 1
79 88 89 1
80 88 90 2
81 88 91 1
82 91 92 1
83 91 93 1
84 91 94 1
85 95 96 1
86 95 97 2
87 95 98 1
88 98 99 1
89 98 100 1
90 98 101 1
91 102 103 1
92 102 104 2
93 102 105 1
94 105 106 1
95 105 107 1
96 105 108 1
97 109 110 1
98 109 111 2
99 109 112 1
100 112 113 1
101 112 114 1
102 112 115 1
103 116 117 1
104 116 118 2
105 116 119 1
106 119 120 1
107 119 121 1
108 119 122 1
109 123 124 1
110 123 125 2
111 123 126 1
112 126 127 1
113 126 128 1
114 126 129 1
115 130 131 1
116 130 132 2
117 130 133 1
118 133 134 1
119 133 135 1
120 133 136 1
121 137 138 1
122 137 139 2
123 137 140 1
124 140 141 1
125 140 142 1
126 140 143 1
127 144 145 1
128 144 146 2
129 144 147 1
130 147 148 1
131 147 149 1
132 147 150 1
133 151 152 1
134 151 153 2
135 151 154 1
136 154 155 1
137 154 156 1
138 154 157 1
139 158 159 1
140 158 160 2
141 158 161 1
142 161 162 1
143 161 163 1
144 161 164 1
145 165 166 1
146 165 167 2
147 165 168 1
148 168 169 1
149 168 170 1
150 168 171 1
151 172 173 1
152 172 174 2
153 172 175 1
154 175 176 1
155 175 177 1
156 175 178 1
157 179 180 1
158 179 181 2
159 179 182 1
160 182 183 1
161 182 184 1
162 182 185 1
163 186 187 1
164 186 188 2
165 186 189 1
166 189 190 1
167 189 191 1
168 189 192 1
169 193 194 1
170 193 195 2
171 193 196 1
172 196 197 1
173 196 198 1
174 196 199 1
175 200 201 1
176 200 202 2
177 200 203 1
178 203 204 1
179 203 205 1
180 203 206 1
181 207 208 1
182 207 209 2
183 207 210 1
184 210 211 1
185 210 212 1
186 210 213 1
187 214 215 1
188 214 216 2
189 214 217 1
190 217 218 1
191 217 219 1
192 217 220 1
193 221 222 1
194 221 223 2
195 221 224 1
196 224 225 1
197 224 226 1
198 224 227 1
199 228 229 1
200 228 230 2
201 228 231 1
202 231 232 1
203 231 233 1
204 231 234 1
205 235 236 1
206 235 237 2
207 235 238 1
208 238 239 1
209 238 240 1
210 238 241 1
211 242 243 1
212 242 244 2
213 242 245 1
214 245 246 1
215 245 247 1
216 245 248 1
217 249 250 1
218 249 251 2
219 249 252 1
220 252 253 1
221 252 254 1
222 252 255 1
223 256 257 1
224 256 258 2
225 256 259 1
226 259 260 1
227 259 261 1
228 259 262 1
229 263 264 1
230 263 265 2
231 263 266 1
232 266 267 1
233 266 268 1
234 266 269 1
235 270 271 1
236 270 272 2
237 270 273 1
238 273 274 1
239 273 275 1
240 273 276 1
241 277 278 1
242 277 279 2
243 277 280 1
244 280 281 1
245 280 282 1
246 280 283 1
247 284 285 1
248 284 286 2
249 284 287 1
250 287 288 1
251 287 289 1
252 287 290 1
253 291 292 1
254 291 293 2
255 291 294 1
256 294 295 1
257 294 296 1
258 294 297 1
259 298 299 1
260 298 300 2
261 298 301 1
262 301 302 1
263 301 303 1
264 301 304 1
265 305 306 1
266 305 307 2
267 305 308 1
268 308 309 1
269 308 310 1
270 308 311 1
271 312 313 1
272 312 314 2
273 312 315 1
274 315 316 1
275 315 317 1
276 315 318 1
277 319 320 1
278 319 321 2
279 319 322 1
280 322 323 1
281 322 324 1
282 322 325 1
283 326 327 1
284 326 328 2
285 326 329 1
286 329 330 1
287 329 331 1
288 329 332 1
289 333 334 1
290 333 335 2
291 333 336 1
292 336 337 1
293 336 338 1
294 336 339 1
295 340 341 1
296 340 342 2
297 340 343 1
298 343 344 1
299 343 345 1
300 343 346 1
301 347 348 1
302 347 349 2
303 347 350 1
304 350 351 1
305 350 352 1
306 350 353 1
307 354 355 1
308 354 356 2
309 354 357 1
310 357 358 1
311 357 359 1
312 357 360 1
313 361 362 1
314 361 363 2
315 361 364 1
316 364 365 1
317 364 366 1
318 364 367 1
