@<TRIPOS>MOLECULE
Molecule Name
374 324
SMALL
NO_CHARGES

@<TRIPOS>ATOM
1 C1	0.0000	0.0000	0.0000 C
2 O2	-1.2332	0.0000	0.0000 O
3 O3	0.7374	1.1654	0.0000 O
4 H4	0.1401	1.9432	-0.0498 H
5 N5	2.0217	-1.2089	-0.8451 N
6 C6	0.6402	-1.2006	-2.8342 C
7 H7	-0.2982	-1.2451	-2.2967 H
8 H8	0.5756	-1.1894	-3.9147 H
9 C9	3.1256	-1.0946	-3.0472 C
10 H10	3.7565	-1.9800	-2.8947 H
11 H11	2.8838	-1.0353	-4.1103 H
12 H12	3.7265	-0.2143	-2.7864 H
13 C13	2.9928	-1.7597	1.2196 C
14 C14	3.2999	-1.0830	-0.1264 C
15 C15	0.8816	-1.2421	0.0679 C
16 C16	1.5208	-1.3745	1.4894 C
17 H17	3.0916	-2.8465	1.1176 H
18 H18	3.6613	-1.4292	2.0203 H
19 H19	4.1057	-1.5849	-0.6669 H
20 H20	3.5865	-0.0290	0.0175 H
21 H21	0.2239	-2.0882	-0.1654 H
22 H22	1.4754	-0.4122	2.0097 H
23 H23	0.9896	-2.1113	2.0972 H
24 C24	1.8530	-1.1651	-2.2317 C
25 C25	-2.5447	3.9855	-1.8110 C
26 H26	-2.4019	3.7130	-2.8740 H
27 O27	-1.5977	3.9122	-1.0198 O
28 C28	-3.9310	4.4314	-1.4388 C
29 H29	-4.6564	3.6391	-1.6671 H
30 H30	-3.9805	4.6795	-0.3765 H
31 H31	-4.2192	5.3066	-2.0361 H
32 C32	-1.4772	4.3235	-2.3016 C
33 H33	-0.6911	3.9540	-2.9872 H
34 O34	-1.5429	3.8932	-1.1446 O
35 C35	-2.4114	5.3480	-2.8820 C
36 H36	-2.9217	4.9372	-3.7634 H
37 H37	-3.1510	5.6550	-2.1396 H
38 H38	-1.8453	6.2247	-3.2236 H
39 C39	-1.9576	1.9628	3.4286 C
40 H40	-2.2221	2.1655	4.4838 H
41 O41	-0.7997	1.6504	3.1289 O
42 C42	-3.0843	2.0967	2.4429 C
43 H43	-3.4997	3.1127	2.4800 H
44 H44	-2.7350	1.8797	1.4312 H
45 H45	-3.9003	1.4109	2.7067 H
46 C46	-1.5703	5.0998	1.5169 C
47 H47	-1.2117	5.8930	0.8336 H
48 O48	-1.1056	3.9570	1.4379 O
49 C49	-2.6241	5.5229	2.5015 C
50 H50	-3.5037	5.9103	1.9700 H
51 H51	-2.9177	4.6814	3.1325 H
52 H52	-2.2475	6.3413	3.1293 H
53 C53	-1.9684	1.0882	3.2240 C
54 H54	-2.5519	0.8473	2.3151 H
55 O55	-1.0113	1.8677	3.1575 O
56 C56	-2.4273	0.4108	4.4848 C
57 H57	-2.3933	-0.6799	4.3614 H
58 H58	-1.7980	0.7047	5.3275 H
59 H59	-3.4726	0.6734	4.6955 H
60 C60	-0.2995	5.2262	1.1337 C
61 H61	0.4585	4.9766	1.9003 H
62 O62	-0.2366	4.7143	0.0103 O
63 C63	-1.3605	6.1987	1.5668 C
64 H64	-0.8997	7.1444	1.8821 H
65 H65	-2.0627	6.3864	0.7518 H
66 H66	-1.9018	5.8043	2.4369 H
67 C67	2.4364	-4.9727	-2.0486 C
68 H68	2.1710	-4.6254	-3.0652 H
69 O69	3.1072	-4.2506	-1.3025 O
70 C70	1.9290	-6.3385	-1.6794 C
71 H71	2.3132	-7.0874	-2.3848 H
72 H72	2.2360	-6.5988	-0.6643 H
73 H73	0.8337	-6.3668	-1.7526 H
74 C74	0.9323	4.8417	-1.9720 C
75 H75	1.1228	4.0941	-2.7654 H
76 O76	0.9846	4.5100	-0.7824 O
77 C77	0.6192	6.2304	-2.4545 C
78 H78	-0.2690	6.2144	-3.1003 H
79 H79	0.4461	6.8990	-1.6087 H
80 H80	1.4477	6.6138	-3.0647 H
81 C81	0.1787	4.5917	2.6121 C
82 H82	0.1442	3.9900	3.5401 H
83 O83	-0.3447	4.1648	1.5768 O
84 C84	0.8874	5.9124	2.7244 C
85 H85	1.9262	5.7574	3.0450 H
86 H86	0.8731	6.4366	1.7665 H
87 H87	0.4081	6.5340	3.4924 H
88 C88	-3.1731	-3.2642	-0.5319 C
89 H89	-2.8871	-2.2460	-0.2059 H
90 O90	-2.3022	-4.0753	-0.8662 O
91 C91	-4.6481	-3.5530	-0.5295 C
92 H92	-5.1722	-2.8466	-1.1871 H
93 H93	-4.8380	-4.5753	-0.8632 H
94 H94	-5.0589	-3.4115	0.4790 H
95 C95	0.0434	4.0310	2.4106 C
96 H96	0.5761	3.0634	2.4785 H
97 O97	-0.2329	4.5100	1.3050 O
98 C98	-0.2954	4.6757	3.7253 C
99 H99	0.6198	4.8534	4.3057 H
100 H100	-0.8173	5.6213	3.5642 H
101 H101	-0.9249	4.0040	4.3241 H
102 C102	-2.2981	-3.2886	2.9455 C
103 H103	-2.8585	-3.0019	3.8556 H
104 O104	-1.3128	-4.0300	3.0324 O
105 C105	-2.8227	-2.7190	1.6573 C
106 H106	-2.8224	-1.6217	1.7019 H
107 H107	-2.2124	-3.0524	0.8153 H
108 H108	-3.8647	-3.0296	1.5038 H
109 C109	-1.8167	-4.0908	0.8685 C
110 H110	-1.9361	-3.8687	-0.2090 H
111 O111	-0.7108	-4.4148	1.3156 O
112 C112	-3.0654	-3.9672	1.6959 C
113 H113	-3.8407	-4.6441	1.3128 H
114 H114	-2.8561	-4.2031	2.7414 H
115 H115	-3.4687	-2.9486	1.6208 H
116 C116	1.0106	-5.8546	0.0376 C
117 H117	0.4864	-5.8396	-0.9369 H
118 O118	1.1455	-4.8101	0.6848 O
119 C119	1.5179	-7.1991	0.4777 C
120 H120	2.2160	-7.6020	-0.2683 H
121 H121	2.0191	-7.1208	1.4448 H
122 H122	0.6855	-7.9116	0.5501 H
123 C123	-4.1532	0.3099	-1.7097 C
124 H124	-3.6601	-0.5772	-1.2687 H
125 O125	-4.2144	0.4385	-2.9376 O
126 C126	-4.7137	1.2950	-0.7225 C
127 H127	-3.9164	1.6652	-0.0643 H
128 H128	-5.1796	2.1346	-1.2428 H
129 H129	-5.4543	0.8036	-0.0777 H
130 C130	-3.9649	0.5494	-2.7552 C
131 H131	-2.9256	0.9146	-2.8601 H
132 O132	-4.7362	0.5896	-3.7203 O
133 C133	-4.3315	0.0256	-1.3949 C
134 H134	-4.1886	0.8082	-0.6379 H
135 H135	-5.3700	-0.3119	-1.3824 H
136 H136	-3.6697	-0.8062	-1.1196 H
137 C137	-1.0156	3.6495	3.3060 C
138 H138	-0.1780	4.3474	3.4953 H
139 O139	-1.0238	2.9541	2.2840 O
140 C140	-2.0893	3.6283	4.3575 C
141 H141	-2.5257	4.6296	4.4717 H
142 H142	-2.8719	2.9151	4.0904 H
143 H143	-1.6593	3.3572	5.3308 H
144 C144	1.7260	-6.3680	0.9431 C
145 H145	2.3489	-6.5544	0.0477 H
146 O146	1.8368	-5.3053	1.5649 O
147 C147	0.7790	-7.4749	1.3133 C
148 H148	1.3366	-8.4028	1.4979 H
149 H149	0.2071	-7.2068	2.2042 H
150 H150	0.0921	-7.6782	0.4810 H
151 C151	-0.7607	-5.2991	1.6912 C
152 H152	-0.8747	-5.6523	0.6487 H
153 O153	0.3174	-4.8292	2.0720 O
154 C154	-1.9810	-5.4382	2.5576 C
155 H155	-2.2907	-6.4906	2.6075 H
156 H156	-1.7793	-5.0667	3.5645 H
157 H157	-2.8202	-4.8813	2.1200 H
158 C158	-0.3374	-5.0261	-1.3687 C
159 H159	0.1675	-5.0628	-2.3528 H
160 O160	0.3267	-4.8793	-0.3366 O
161 C161	-1.8335	-5.1650	-1.4047 C
162 H162	-2.1132	-6.1180	-1.8733 H
163 H163	-2.2462	-5.1176	-0.3947 H
164 H164	-2.2720	-4.3684	-2.0203 H
165 C165	1.1319	5.2465	-1.0215 C
166 H166	1.4800	5.2289	0.0288 H
167 O167	0.7801	4.1988	-1.5753 O
168 C168	1.1275	6.5984	-1.6783 C
169 H169	2.1389	7.0262	-1.6685 H
170 H170	0.7712	6.5221	-2.7077 H
171 H171	0.4857	7.2894	-1.1158 H
172 C172	6.9219	-1.1343	-3.1253 C
173 H173	6.3121	-0.9710	-4.0342 H
174 O174	6.4558	-1.7682	-2.1720 O
175 C175	8.3027	-0.5416	-3.1585 C
176 H176	8.2440	0.5439	-3.3146 H
177 H177	8.8309	-0.7503	-2.2257 H
178 H178	8.8700	-0.9530	-4.0039 H
179 C179	6.4413	-4.2605	-0.8080 C
180 H180	6.5153	-4.1630	0.2919 H
181 O181	6.1782	-3.2717	-1.5015 O
182 C182	6.6795	-5.6414	-1.3517 C
183 H183	5.9589	-6.3474	-0.9179 H
184 H184	6.5874	-5.6449	-2.4398 H
185 H185	7.6795	-5.9928	-1.0647 H
186 C186	5.2116	-4.7934	-3.4066 C
187 H187	4.9981	-4.1618	-4.2898 H
188 O188	5.1911	-4.3010	-2.2730 O
189 C189	5.5140	-6.2358	-3.7017 C
190 H190	6.3841	-6.3106	-4.3675 H
191 H191	5.7114	-6.7820	-2.7769 H
192 H192	4.6698	-6.6980	-4.2304 H
193 C193	-3.9375	-1.5497	-3.5450 C
194 H194	-3.1350	-2.2458	-3.8548 H
195 O195	-4.5641	-0.9082	-4.3959 O
196 C196	-4.1812	-1.4624	-2.0645 C
197 H197	-3.2648	-1.1453	-1.5490 H
198 H198	-4.9860	-0.7559	-1.8505 H
199 H199	-4.4428	-2.4517	-1.6660 H
200 C200	-5.4764	0.9395	0.3798 C
201 H201	-5.1053	0.7021	1.3950 H
202 O202	-6.6398	1.3254	0.2199 O
203 C203	-4.4808	0.7570	-0.7312 C
204 H204	-4.1267	-0.2823	-0.7540 H
205 H205	-4.9301	1.0129	-1.6931 H
206 H206	-3.5995	1.3883	-0.5559 H
207 C207	7.0308	1.1304	-1.7085 C
208 H208	7.7549	1.6856	-1.0824 H
209 O209	5.9137	0.8477	-1.2611 O
210 C210	7.5109	0.7703	-3.0865 C
211 H211	8.4175	0.1539	-3.0214 H
212 H212	6.7361	0.2270	-3.6315 H
213 H213	7.7842	1.6782	-3.6404 H
214 C214	-3.7373	-2.1988	3.3108 C
215 H215	-3.8522	-3.2772	3.0906 H
216 O216	-3.5047	-1.8234	4.4654 O
217 C217	-3.8837	-1.2792	2.1310 C
218 H218	-4.8727	-1.4092	1.6714 H
219 H219	-3.7558	-0.2393	2.4386 H
220 H220	-3.1414	-1.5307	1.3619 H
221 C221	-2.2263	-2.4502	4.1207 C
222 H222	-3.0684	-2.3648	3.4079 H
223 O223	-1.1361	-2.8929	3.7418 O
224 C224	-2.5194	-1.9991	5.5242 C
225 H225	-3.3529	-2.5801	5.9412 H
226 H226	-1.6368	-2.1178	6.1561 H
227 H227	-2.8349	-0.9473	5.5245 H
228 C228	0.4423	3.2921	-3.3905 C
229 H229	0.8420	2.6978	-4.2341 H
230 O230	1.0445	3.3191	-2.3113 O
231 C231	-0.8391	4.0270	-3.6678 C
232 H232	-1.6249	3.3183	-3.9615 H
233 H233	-1.1589	4.5844	-2.7848 H
234 H234	-0.7036	4.7173	-4.5110 H
235 C235	5.6622	-4.9994	-0.4328 C
236 H236	5.1843	-5.6697	-1.1723 H
237 O237	5.8159	-3.8004	-0.6915 O
238 C238	6.0859	-5.6530	0.8527 C
239 H239	6.7978	-6.4636	0.6474 H
240 H240	6.5456	-4.9211	1.5203 H
241 H241	5.2188	-6.1104	1.3474 H
242 C242	7.5827	-1.1338	0.7734 C
243 H243	7.9332	-0.4299	-0.0053 H
244 O244	6.6076	-1.8620	0.5570 O
245 C245	8.3664	-1.1209	2.0559 C
246 H246	8.3479	-0.1165	2.4996 H
247 H247	7.9530	-1.8426	2.7637 H
248 H248	9.4195	-1.3603	1.8574 H
249 C249	0.0842	3.2487	-3.1052 C
250 H250	-0.8223	2.6731	-2.8378 H
251 O251	1.0490	3.2792	-2.3330 O
252 C252	0.0335	3.9550	-4.4309 C
253 H253	-0.8104	4.6574	-4.4525 H
254 H254	0.9653	4.4949	-4.6123 H
255 H255	-0.1365	3.2305	-5.2384 H
256 C256	7.4019	-2.6218	-1.6348 C
257 H257	7.2895	-2.2339	-0.6045 H
258 O258	6.4326	-2.6337	-2.4018 O
259 C259	8.7774	-3.1089	-1.9953 C
260 H260	9.0833	-3.9142	-1.3141 H
261 H261	8.7967	-3.4719	-3.0250 H
262 H262	9.5084	-2.2982	-1.8759 H
263 C263	0.6281	-5.9859	1.2131 C
264 H264	0.0446	-6.2267	0.3042 H
265 O265	1.5852	-5.2064	1.1467 O
266 C266	0.1692	-6.6632	2.4739 C
267 H267	0.2032	-7.7539	2.3505 H
268 H268	0.7985	-6.3693	3.3166 H
269 H269	-0.8761	-6.4006	2.6846 H
270 C270	2.1502	0.2700	-7.6302 C
271 H271	2.5884	0.5800	-8.5979 H
272 O272	2.8191	-0.3961	-6.8320 O
273 C273	0.7344	0.7137	-7.3903 C
274 H274	0.0777	0.3238	-8.1794 H
275 H275	0.3845	0.3655	-6.4162 H
276 H276	0.6691	1.8089	-7.4361 H
277 C277	-0.6065	2.5071	3.7095 C
278 H278	-1.0840	3.2634	3.0579 H
279 O279	0.2986	1.7908	3.2672 O
280 C280	-1.1367	2.4370	5.1141 C
281 H281	-2.2124	2.2160	5.1010 H
282 H282	-0.6108	1.6677	5.6834 H
283 H283	-1.0191	3.4092	5.6111 H
284 C284	5.5154	-4.4972	-5.0274 C
285 H285	6.3816	-5.1386	-5.2783 H
286 O286	5.4339	-3.9751	-3.9099 O
287 C287	4.4976	-4.3294	-6.1205 C
288 H288	4.0969	-5.3081	-6.4168 H
289 H289	3.6817	-3.6844	-5.7876 H
290 H290	4.9695	-3.8969	-7.0127 H
291 C291	7.1749	0.9617	-0.7491 C
292 H292	7.9796	0.8544	-1.5011 H
293 O293	5.9906	0.8721	-1.0917 O
294 C294	7.6359	1.2143	0.6590 C
295 H295	8.2379	2.1319	0.7003 H
296 H296	6.7798	1.3064	1.3308 H
297 H297	8.2838	0.3947	0.9970 H
298 C298	-4.8531	-0.4603	2.8089 C
299 H299	-5.8695	-0.2713	2.4142 H
300 O300	-4.6764	-0.6007	4.0243 O
301 C301	-3.7617	-0.5270	1.7777 C
302 H302	-3.7169	0.4144	1.2139 H
303 H303	-2.7972	-0.7161	2.2536 H
304 H304	-3.9769	-1.3217	1.0510 H
305 C305	-1.8213	-4.0549	4.1842 C
306 H306	-2.5923	-4.5092	3.5332 H
307 O307	-0.9769	-3.2904	3.7040 O
308 C308	-1.8946	-4.4369	5.6360 C
309 H309	-1.8053	-5.5260	5.7448 H
310 H310	-1.1002	-3.9451	6.2013 H
311 H311	-2.8715	-4.1561	6.0514 H
312 C312	-2.8939	-2.7953	3.6706 C
313 H313	-3.7615	-2.1088	3.6946 H
314 O314	-2.5600	-3.4079	4.6911 O
315 C315	-2.1944	-2.9067	2.3449 C
316 H316	-1.8321	-1.9205	2.0252 H
317 H317	-1.3550	-3.6019	2.4128 H
318 H318	-2.8975	-3.2509	1.5748 H
319 C319	1.9743	-6.0094	-2.4183 C
320 H320	1.8203	-6.6311	-3.3207 H
321 O321	3.0603	-6.0318	-1.8282 O
322 C322	0.7956	-5.1764	-1.9988 C
323 H323	-0.0709	-5.8212	-1.8002 H
324 H324	1.0354	-4.5979	-1.1042 H
325 H325	0.5053	-4.4969	-2.8110 H
326 C326	-3.1271	3.1674	-3.1074 C
327 H327	-2.7736	3.5407	-4.0873 H
328 O328	-4.0727	3.7228	-2.5371 O
329 C329	-2.3847	1.9795	-2.5625 C
330 H330	-1.3191	2.2198	-2.4489 H
331 H331	-2.7984	1.6800	-1.5972 H
332 H332	-2.4467	1.1397	-3.2673 H
333 C333	-1.3015	0.6807	-5.8178 C
334 H334	-1.1300	1.2960	-4.9141 H
335 O335	-0.3937	-0.0284	-6.2662 O
336 C336	-2.6753	0.7841	-6.4188 C
337 H337	-2.8895	1.8254	-6.6942 H
338 H338	-2.7551	0.1469	-7.3020 H
339 H339	-3.4333	0.4892	-5.6811 H
340 C340	7.3301	0.0218	-3.4935 C
341 H341	7.3206	0.4249	-4.5240 H
342 O342	6.4602	0.3658	-2.6854 O
343 C343	8.4460	-0.9365	-3.1848 C
344 H344	9.4172	-0.4504	-3.3481 H
345 H345	8.3779	-1.2826	-2.1513 H
346 H346	8.4040	-1.7970	-3.8657 H
347 C347	-3.6592	1.7957	-3.9675 C
348 H348	-4.0133	2.7681	-3.5758 H
349 O349	-4.0483	1.3927	-5.0694 O
350 C350	-2.7072	1.0482	-3.0764 C
351 H351	-3.1769	0.8503	-2.1037 H
352 H352	-2.4108	0.1047	-3.5397 H
353 H353	-1.8159	1.6588	-2.8796 H
354 C354	-3.8109	-3.8079	-3.3985 C
355 H355	-3.7521	-3.2697	-4.3636 H
356 O356	-4.6795	-4.6694	-3.2213 O
357 C357	-2.7852	-3.4113	-2.3740 C
358 H358	-2.8705	-2.3397	-2.1495 H
359 H359	-2.9168	-3.9900	-1.4573 H
360 H360	-1.7738	-3.5725	-2.7703 H
361 C361	-2.5445	-5.6157	-2.0395 C
362 H362	-3.5570	-5.1875	-1.9129 H
363 O363	-2.4085	-6.8090	-2.3322 O
364 C364	-1.4065	-4.6561	-1.8319 C
365 H365	-1.4508	-4.2309	-0.8203 H
366 H366	-0.4492	-5.1613	-1.9761 H
367 H367	-1.4893	-3.8150	-2.5330 H
368 C368	2.3415	3.8491	3.0870 C
369 H369	1.2461	3.7168	3.1722 H
370 O370	3.0173	4.0859	4.0946 O
371 C371	2.9018	3.7200	1.6984 C
372 H372	2.4366	4.4598	1.0332 H
373 H373	3.9842	3.8644	1.7079 H
374 H374	2.6651	2.7301	1.2862 H
@<TRIPOS>BOND
1 1 2 2
2 1 3 1
3 1 15 1
4 3 4 1
5 5 14 1
6 5 15 1
7 5 24 1
8 6 7 1
9 6 8 1
10 6 24 2
11 9 10 1
12 9 11 1
13 9 12 1
14 9 24 1
15 13 14 1
16 13 16 1
17 13 17 1
18 13 18 1
19 14 19 1
20 14 20 1
21 15 16 1
22 15 21 1
23 16 22 1
24 16 23 1
25 25 26 1
26 25 27 2
27 25 28 1
28 28 29 1
29 28 30 1
30 28 31 1
31 32 33 1
32 32 34 2
33 32 35 1
34 35 36 1
35 35 37 1
36 35 38 1
37 39 40 1
38 39 41 2
39 39 42 1
40 42 43 1
41 42 44 1
42 42 45 1
43 46 47 1
44 46 48 2
45 46 49 1
46 49 50 1
47 49 51 1
48 49 52 1
49 53 54 1
50 53 55 2
51 53 56 1
52 56 57 1
53 56 58 1
54 56 59 1
55 60 61 1
56 60 62 2
57 60 63 1
58 63 64 1
59 63 65 1
60 63 66 1
61 67 68 1
62 67 69 2
63 67 70 1
64 70 71 1
65 70 72 1
66 70 73 1
67 74 75 1
68 74 76 2
69 74 77 1
70 77 78 1
71 77 79 1
72 77 80 1
73 81 82 1
74 81 83 2
75 81 84 1
76 84 85 1
77 84 86 1
78 84 87 1
79 88 89 1
80 88 90 2
81 88 91 1
82 91 92 1
83 91 93 1
84 91 94 1
85 95 96 1
86 95 97 2
87 95 98 1
88 98 99 1
89 98 100 1
90 98 101 1
91 102 103 1
92 102 104 2
93 102 105 1
94 105 106 1
95 105 107 1
96 105 108 1
97 109 110 1
98 109 111 2
99 109 112 1
100 112 113 1
101 112 114 1
102 112 115 1
103 116 117 1
104 116 118 2
105 116 119 1
106 119 120 1
107 119 121 1
108 119 122 1
109 123 124 1
110 123 125 2
111 123 126 1
112 126 127 1
113 126 128 1
114 126 129 1
115 130 131 1
116 130 132 2
117 130 133 1
118 133 134 1
119 133 135 1
120 133 136 1
121 137 138 1
122 137 139 2
123 137 140 1
124 140 141 1
125 140 142 1
126 140 143 1
127 144 145 1
128 144 146 2
129 144 147 1
130 147 148 1
131 147 149 1
132 147 150 1
133 151 152 1
134 151 153 2
135 151 154 1
136 154 155 1
137 154 156 1
138 154 157 1
139 158 159 1
140 158 160 2
141 158 161 1
142 161 162 1
143 161 163 1
144 161 164 1
145 165 166 1
146 165 167 2
147 165 168 1
148 168 169 1
149 168 170 1
150 168 171 1
151 172 173 1
152 172 174 2
153 172 175 1
154 175 176 1
155 175 177 1
156 175 178 1
157 179 180 1
158 179 181 2
159 179 182 1
160 182 183 1
161 182 184 1
162 182 185 1
163 186 187 1
164 186 188 2
165 186 189 1
166 189 190 1
167 189 191 1
168 189 192 1
169 193 194 1
170 193 195 2
171 193 196 1
172 196 197 1
173 196 198 1
174 196 199 1
175 200 201 1
176 200 202 2
177 200 203 1
178 203 204 1
179 203 205 1
180 203 206 1
181 207 208 1
182 207 209 2
183 207 210 1
184 210 211 1
185 210 212 1
186 210 213 1
187 214 215 1
188 214 216 2
189 214 217 1
190 217 218 1
191 217 219 1
192 217 220 1
193 221 222 1
194 221 223 2
195 221 224 1
196 224 225 1
197 224 226 1
198 224 227 1
199 228 229 1
200 228 230 2
201 228 231 1
202 231 232 1
203 231 233 1
204 231 234 1
205 235 236 1
206 235 237 2
207 235 238 1
208 238 239 1
209 238 240 1
210 238 241 1
211 242 243 1
212 242 244 2
213 242 245 1
214 245 246 1
215 245 247 1
216 245 248 1
217 249 250 1
218 249 251 2
219 249 252 1
220 252 253 1
221 252 254 1
222 252 255 1
223 256 257 1
224 256 258 2
225 256 259 1
226 259 260 1
227 259 261 1
228 259 262 1
229 263 264 1
230 263 265 2
231 263 266 1
232 266 267 1
233 266 268 1
234 266 269 1
235 270 271 1
236 270 272 2
237 270 273 1
238 273 274 1
239 273 275 1
240 273 276 1
241 277 278 1
242 277 279 2
243 277 280 1
244 280 281 1
245 280 282 1
246 280 283 1
247 284 285 1
248 284 286 2
249 284 287 1
250 287 288 1
251 287 289 1
252 287 290 1
253 291 292 1
254 291 293 2
255 291 294 1
256 294 295 1
257 294 296 1
258 294 297 1
259 298 299 1
260 298 300 2
261 298 301 1
262 301 302 1
263 301 303 1
264 301 304 1
265 305 306 1
266 305 307 2
267 305 308 1
268 308 309 1
269 308 310 1
270 308 311 1
271 312 313 1
272 312 314 2
273 312 315 1
274 315 316 1
275 315 317 1
276 315 318 1
277 319 320 1
278 319 321 2
279 319 322 1
280 322 323 1
281 322 324 1
282 322 325 1
283 326 327 1
284 326 328 2
285 326 329 1
286 329 330 1
287 329 331 1
288 329 332 1
289 333 334 1
290 333 335 2
291 333 336 1
292 336 337 1
293 336 338 1
294 336 339 1
295 340 341 1
296 340 342 2
297 340 343 1
298 343 344 1
299 343 345 1
300 343 346 1
301 347 348 1
302 347 349 2
303 347 350 1
304 350 351 1
305 350 352 1
306 350 353 1
307 354 355 1
308 354 356 2
309 354 357 1
310 357 358 1
311 357 359 1
312 357 360 1
313 361 362 1
314 361 363 2
315 361 364 1
316 364 365 1
317 364 366 1
318 364 367 1
319 368 369 1
320 368 370 2
321 368 371 1
322 371 372 1
323 371 373 1
324 371 374 1
