@<TRIPOS>MOLECULE
Molecule Name
374 324
SMALL
NO_CHARGES

@<TRIPOS>ATOM
1 C1	0.0000	0.0000	0.0000 C
2 O2	-1.2298	0.0000	0.0000 O
3 O3	0.6881	1.1839	0.0000 O
4 H4	1.6739	1.0882	-0.0510 H
5 N5	2.0239	-1.2376	0.8546 N
6 C6	3.3908	0.0440	-0.6870 C
7 H7	2.6996	-0.0220	-1.5196 H
8 H8	4.3322	0.5373	-0.8876 H
9 C9	4.2746	-0.5377	1.5733 C
10 H10	4.6845	-1.5379	1.7617 H
11 H11	5.0965	0.1018	1.2468 H
12 H12	3.8956	-0.1505	2.5261 H
13 C13	0.8812	-3.1587	1.6067 C
14 C14	1.7931	-2.0163	2.0885 C
15 C15	0.8379	-1.3031	-0.0224 C
16 C16	0.0105	-2.5094	0.5039 C
17 H17	1.4957	-3.9649	1.1898 H
18 H18	0.2783	-3.5788	2.4172 H
19 H19	2.7338	-2.3784	2.5059 H
20 H20	1.2915	-1.4062	2.8554 H
21 H21	1.1611	-1.4665	-1.0607 H
22 H22	-0.9411	-2.1443	0.8977 H
23 H23	-0.2215	-3.2122	-0.3004 H
24 C24	3.1949	-0.5768	0.5130 C
25 C25	1.8186	2.2478	4.0583 C
26 H26	2.5026	2.8833	3.4642 H
27 O27	2.1225	1.0762	4.3091 O
28 C28	0.5477	2.9118	4.5089 C
29 H29	-0.0203	3.2692	3.6396 H
30 H30	-0.0639	2.2149	5.0858 H
31 H31	0.7789	3.7938	5.1207 H
32 C32	-1.2733	0.8668	4.1706 C
33 H33	-0.5749	1.3919	4.8496 H
34 O34	-1.0763	-0.3168	3.8733 O
35 C35	-2.4273	1.6888	3.6690 C
36 H36	-2.0565	2.5701	3.1288 H
37 H37	-3.0621	1.0938	3.0089 H
38 H38	-3.0209	2.0617	4.5142 H
39 C39	-1.8753	0.5831	3.5628 C
40 H40	-2.3548	1.2388	2.8113 H
41 O41	-0.6446	0.4713	3.5926 O
42 C42	-2.8163	-0.1236	4.4978 C
43 H43	-3.5169	-0.7481	3.9276 H
44 H44	-2.2598	-0.7456	5.2022 H
45 H45	-3.4210	0.6083	5.0495 H
46 C46	-0.7669	-2.2722	-4.1525 C
47 H47	-1.5912	-3.0105	-4.1607 H
48 O48	0.2594	-2.4966	-3.5011 O
49 C49	-1.0023	-1.0320	-4.9682 C
50 H50	-1.9022	-0.5120	-4.6136 H
51 H51	-0.1419	-0.3626	-4.9030 H
52 H52	-1.1834	-1.2991	-6.0178 H
53 C53	0.1173	-1.8707	-4.4515 C
54 H54	-0.6131	-1.1280	-4.0781 H
55 O55	0.8591	-2.4627	-3.6595 O
56 C56	0.1217	-2.0809	-5.9397 C
57 H57	0.3351	-1.1344	-6.4541 H
58 H58	0.8691	-2.8267	-6.2183 H
59 H59	-0.8704	-2.4084	-6.2777 H
60 C60	-3.3451	-2.5295	2.6331 C
61 H61	-3.2041	-1.5382	3.1042 H
62 O62	-2.5180	-3.4286	2.8216 O
63 C63	-4.5772	-2.6719	1.7840 C
64 H64	-4.5652	-1.9305	0.9739 H
65 H65	-4.6358	-3.6770	1.3609 H
66 H66	-5.4746	-2.4711	2.3841 H
67 C67	-1.0389	4.1305	-0.9981 C
68 H68	-0.6450	3.1882	-1.4242 H
69 O69	-0.3541	5.1591	-1.0304 O
70 C70	-2.4175	4.0451	-0.4056 C
71 H71	-2.4375	3.2967	0.3979 H
72 H72	-2.7248	5.0158	-0.0108 H
73 H73	-3.1356	3.7121	-1.1667 H
74 C74	-1.4126	4.3970	-1.7503 C
75 H75	-1.8874	4.9915	-0.9468 H
76 O76	-0.4352	4.8466	-2.3589 O
77 C77	-2.0383	3.0569	-2.0183 C
78 H78	-3.0944	3.1814	-2.2926 H
79 H79	-1.5085	2.5416	-2.8223 H
80 H80	-2.0175	2.4418	-1.1089 H
81 C81	-3.6258	1.9501	1.2128 C
82 H82	-2.9712	2.4502	1.9518 H
83 O83	-4.3530	1.0137	1.5626 O
84 C84	-3.5503	2.4908	-0.1875 C
85 H85	-2.5223	2.4153	-0.5666 H
86 H86	-4.2258	1.9412	-0.8465 H
87 H87	-3.8133	3.5569	-0.1953 H
88 C88	-1.5506	4.3073	-1.3367 C
89 H89	-0.4465	4.2937	-1.2636 H
90 O90	-2.1371	5.3442	-1.6665 O
91 C91	-2.2355	3.0092	-1.0127 C
92 H92	-1.9855	2.6952	0.0095 H
93 H93	-3.3182	3.1135	-1.1102 H
94 H94	-1.8792	2.2165	-1.6838 H
95 C95	-2.9940	4.5419	-0.2627 C
96 H96	-2.1738	5.2310	-0.5400 H
97 O97	-4.0032	4.9759	0.3040 O
98 C98	-2.7753	3.0991	-0.6228 C
99 H99	-1.8635	2.7234	-0.1396 H
100 H100	-3.6304	2.4942	-0.3140 H
101 H101	-2.6242	2.9991	-1.7059 H
102 C102	-1.0134	-1.4603	-3.3933 C
103 H103	-0.1244	-1.1489	-3.9741 H
104 O104	-1.0826	-2.6051	-2.9322 O
105 C105	-2.0764	-0.4108	-3.2266 C
106 H106	-2.4358	-0.0780	-4.2095 H
107 H107	-2.9124	-0.8027	-2.6434 H
108 H108	-1.6592	0.4729	-2.7258 H
109 C109	-0.0871	0.6661	4.5159 C
110 H110	-0.6575	-0.2713	4.6589 H
111 O111	1.1341	0.6838	4.7067 O
112 C112	-0.8982	1.8571	4.0885 C
113 H113	-1.6801	2.0674	4.8305 H
114 H114	-0.2577	2.7338	3.9716 H
115 H115	-1.4100	1.6448	3.1404 H
116 C116	1.8697	-1.4148	-5.0349 C
117 H117	2.4532	-2.0526	-5.7258 H
118 O118	2.0590	-1.4873	-3.8155 O
119 C119	0.8742	-0.4972	-5.6877 C
120 H120	0.1513	-1.0801	-6.2739 H
121 H121	0.3464	0.0920	-4.9349 H
122 H122	1.3843	0.1743	-6.3910 H
123 C123	-2.6500	-0.1359	-3.5397 C
124 H124	-2.4106	0.2337	-2.5245 H
125 O125	-1.7497	-0.5596	-4.2732 O
126 C126	-4.1021	-0.0768	-3.9231 C
127 H127	-4.4663	0.9575	-3.8641 H
128 H128	-4.2460	-0.4595	-4.9357 H
129 H129	-4.7032	-0.6652	-3.2172 H
130 C130	4.2795	-4.1420	-1.1198 C
131 H131	3.5030	-4.8947	-1.3546 H
132 O132	4.4084	-3.7246	0.0365 O
133 C133	5.1208	-3.6971	-2.2831 C
134 H134	4.4837	-3.2669	-3.0673 H
135 H135	5.8572	-2.9576	-1.9617 H
136 H136	5.6341	-4.5593	-2.7294 H
137 C137	-3.9343	1.2933	2.0492 C
138 H138	-4.1625	1.8318	1.1097 H
139 O139	-4.6606	0.3660	2.4241 O
140 C140	-2.7173	1.7729	2.7895 C
141 H141	-2.8260	2.8349	3.0468 H
142 H142	-2.5684	1.1880	3.6996 H
143 H143	-1.8292	1.6913	2.1489 H
144 C144	4.4364	-4.0435	5.6710 C
145 H145	5.3954	-3.9476	6.2148 H
146 O146	4.2106	-3.3356	4.6832 O
147 C147	3.4815	-5.0659	6.2206 C
148 H148	3.2361	-4.8304	7.2648 H
149 H149	2.5663	-5.0930	5.6255 H
150 H150	3.9507	-6.0587	6.2216 H
151 C151	-3.1878	3.3503	-2.2381 C
152 H152	-2.4733	4.1170	-2.5934 H
153 O153	-4.0067	2.8561	-3.0212 O
154 C154	-3.0737	2.9850	-0.7846 C
155 H155	-3.2211	3.8753	-0.1588 H
156 H156	-3.8131	2.2254	-0.5222 H
157 H157	-2.0651	2.6087	-0.5679 H
158 C158	4.6786	-5.5935	2.4879 C
159 H159	3.8751	-6.3179	2.2550 H
160 O160	4.4121	-4.5416	3.0799 O
161 C161	6.0567	-5.9907	2.0384 C
162 H162	6.0694	-6.1451	0.9512 H
163 H163	6.7834	-5.2215	2.3084 H
164 H164	6.3429	-6.9462	2.4975 H
165 C165	4.9830	-4.8420	3.7935 C
166 H166	4.0521	-4.7525	4.3851 H
167 O167	5.3756	-3.8910	3.1082 O
168 C168	5.6899	-6.1644	3.8971 C
169 H169	5.0240	-6.9749	3.5719 H
170 H170	6.5938	-6.1637	3.2843 H
171 H171	5.9531	-6.3709	4.9430 H
172 C172	-1.5310	4.2516	3.1250 C
173 H173	-2.2611	4.7406	2.4523 H
174 O174	-1.2473	4.7677	4.2118 O
175 C175	-0.9459	2.9638	2.6168 C
176 H176	-0.4363	3.1327	1.6588 H
177 H177	-0.2393	2.5529	3.3410 H
178 H178	-1.7450	2.2352	2.4264 H
179 C179	-2.2757	-1.0269	4.5477 C
180 H180	-3.3774	-0.9845	4.6422 H
181 O181	-1.6935	-2.1172	4.5677 O
182 C182	-1.5882	0.3015	4.4001 C
183 H183	-1.8116	0.9404	5.2649 H
184 H184	-0.5081	0.1655	4.3134 H
185 H185	-1.9666	0.8258	3.5125 H
186 C186	-3.7047	0.3826	-2.8468 C
187 H187	-3.2996	0.0168	-1.8842 H
188 O188	-3.3261	-0.1215	-3.9101 O
189 C189	-4.7095	1.4957	-2.7437 C
190 H190	-4.2641	2.3604	-2.2338 H
191 H191	-5.0543	1.7925	-3.7365 H
192 H192	-5.5661	1.1759	-2.1357 H
193 C193	-0.5076	3.2041	2.3942 C
194 H194	-0.9005	3.0309	1.3743 H
195 O195	-0.3395	2.2514	3.1636 O
196 C196	-0.2124	4.6372	2.7380 C
197 H197	-1.1216	5.2447	2.6370 H
198 H198	0.1694	4.7147	3.7582 H
199 H199	0.5241	5.0499	2.0359 H
200 C200	0.8447	0.8407	5.9799 C
201 H201	1.0475	1.8779	6.3080 H
202 O202	1.4547	0.3653	5.0157 O
203 C203	-0.1920	0.1015	6.7786 C
204 H204	-1.1482	0.6407	6.7471 H
205 H205	-0.3273	-0.9090	6.3871 H
206 H206	0.1090	0.0514	7.8334 H
207 C207	-3.1917	2.2421	0.8325 C
208 H208	-2.7384	3.0240	0.1939 H
209 O209	-2.8367	2.1213	2.0104 O
210 C210	-4.2288	1.3835	0.1647 C
211 H211	-3.7940	0.8743	-0.7058 H
212 H212	-4.6208	0.6429	0.8651 H
213 H213	-5.0506	2.0074	-0.2110 H
214 C214	-4.3978	2.9466	-1.9352 C
215 H215	-4.2086	3.9751	-1.5734 H
216 O216	-5.4123	2.6991	-2.5966 O
217 C217	-3.3553	1.9292	-1.5645 C
218 H218	-3.2555	1.8718	-0.4723 H
219 H219	-3.6216	0.9471	-1.9609 H
220 H220	-2.3755	2.2324	-1.9568 H
221 C221	2.1435	-1.8579	6.4718 C
222 H222	1.0869	-2.1332	6.6520 H
223 O223	2.4796	-1.3657	5.3889 O
224 C224	3.0847	-2.1262	7.6125 C
225 H225	3.0707	-3.1936	7.8705 H
226 H226	4.1008	-1.8256	7.3485 H
227 H227	2.7588	-1.5797	8.5075 H
228 C228	6.4243	-4.9154	2.9564 C
229 H229	5.8106	-5.4623	3.6972 H
230 O230	5.9339	-3.9788	2.3159 O
231 C231	7.8410	-5.3958	2.8102 C
232 H232	7.8525	-6.4542	2.5175 H
233 H233	8.3707	-4.8022	2.0621 H
234 H234	8.3641	-5.3277	3.7733 H
235 C235	-0.3649	3.8707	1.3751 C
236 H236	-0.4558	4.8342	0.8385 H
237 O237	0.6854	3.5840	1.9604 O
238 C238	-1.5800	2.9873	1.3272 C
239 H239	-1.8344	2.7514	0.2852 H
240 H240	-1.4024	2.0625	1.8801 H
241 H241	-2.4453	3.5120	1.7536 H
242 C242	1.9018	0.7441	5.9332 C
243 H243	1.0725	1.4683	5.8223 H
244 O244	1.8296	-0.3676	5.3974 O
245 C245	3.0670	1.2170	6.7564 C
246 H246	2.7322	1.4789	7.7691 H
247 H247	3.8349	0.4426	6.8124 H
248 H248	3.4936	2.1290	6.3181 H
249 C249	-1.7795	0.1594	4.5001 C
250 H250	-2.6530	-0.4223	4.1491 H
251 O251	-1.1936	-0.1678	5.5382 O
252 C252	-1.3922	1.3276	3.6372 C
253 H253	-2.2324	2.0297	3.5530 H
254 H254	-0.5248	1.8417	4.0567 H
255 H255	-1.1620	0.9853	2.6195 H
256 C256	4.2679	-6.3569	-0.0072 C
257 H257	3.6135	-6.8725	-0.7356 H
258 O258	3.8163	-5.4450	0.6946 O
259 C259	5.6880	-6.8466	0.0451 C
260 H260	6.1601	-6.7416	-0.9408 H
261 H261	6.2590	-6.2847	0.7873 H
262 H262	5.7098	-7.9157	0.2947 H
263 C263	1.0070	-3.0152	5.7925 C
264 H264	1.5239	-2.1333	6.2165 H
265 O265	1.5493	-3.6844	4.9059 O
266 C266	-0.3500	-3.3075	6.3687 C
267 H267	-1.0152	-2.4457	6.2243 H
268 H268	-0.7846	-4.1901	5.8946 H
269 H269	-0.2732	-3.4705	7.4519 H
270 C270	3.9215	-5.3453	2.1174 C
271 H271	3.2491	-5.2831	2.9940 H
272 O272	4.5681	-4.3540	1.7606 O
273 C273	3.9716	-6.6837	1.4352 C
274 H274	2.9688	-6.9700	1.0913 H
275 H275	4.6567	-6.6542	0.5853 H
276 H276	4.2961	-7.4569	2.1442 H
277 C277	3.2005	-3.7819	5.8015 C
278 H278	3.6482	-2.8231	6.1254 H
279 O279	3.2712	-4.1302	4.6175 O
280 C280	2.5312	-4.5810	6.8843 C
281 H281	1.7280	-3.9918	7.3467 H
282 H282	2.1196	-5.5069	6.4772 H
283 H283	3.2507	-4.8153	7.6802 H
284 C284	3.7193	-4.6258	5.2449 C
285 H285	3.2368	-5.4424	4.6747 H
286 O286	3.4457	-3.4473	4.9913 O
287 C287	4.6909	-5.0641	6.3046 C
288 H288	5.4960	-5.6608	5.8552 H
289 H289	5.1170	-4.1976	6.8145 H
290 H290	4.1868	-5.7111	7.0347 H
291 C291	-5.8676	-1.6120	0.4990 C
292 H292	-6.4269	-0.8858	-0.1211 H
293 O293	-6.3109	-2.7534	0.6682 O
294 C294	-4.5812	-1.1036	1.0870 C
295 H295	-4.7752	-0.2257	1.7176 H
296 H296	-4.0981	-1.8825	1.6808 H
297 H297	-3.9040	-0.7758	0.2872 H
298 C298	6.5707	-3.7268	4.4279 C
299 H299	6.3096	-4.7491	4.0944 H
300 O300	6.0625	-2.7455	3.8742 O
301 C301	7.5537	-3.6487	5.5623 C
302 H302	8.4928	-4.1448	5.2830 H
303 H303	7.7525	-2.6075	5.8249 H
304 H304	7.1620	-4.1821	6.4387 H
305 C305	1.5219	2.3148	-4.2265 C
306 H306	0.5427	2.6973	-3.8810 H
307 O307	1.8880	1.1764	-3.9136 O
308 C308	2.3249	3.2642	-5.0709 C
309 H309	2.5205	4.1909	-4.5151 H
310 H310	3.2714	2.8064	-5.3660 H
311 H311	1.7561	3.5462	-5.9669 H
312 C312	3.8763	-3.1364	-2.4745 C
313 H313	4.5095	-2.2289	-2.4694 H
314 O314	3.1459	-3.3878	-1.5095 O
315 C315	3.9833	-3.9921	-3.7055 C
316 H316	5.0207	-4.3241	-3.8456 H
317 H317	3.3274	-4.8615	-3.6250 H
318 H318	3.7146	-3.4082	-4.5958 H
319 C319	6.0738	-5.1839	1.1488 C
320 H320	5.7332	-6.0276	1.7785 H
321 O321	5.3923	-4.1556	1.0688 O
322 C322	7.3794	-5.3963	0.4351 C
323 H323	7.3142	-6.2774	-0.2171 H
324 H324	7.6372	-4.5175	-0.1598 H
325 H325	8.1782	-5.5979	1.1611 H
326 C326	0.2346	-3.2809	-3.9488 C
327 H327	-0.8027	-3.0847	-3.6172 H
328 O328	1.1362	-2.4830	-3.6684 O
329 C329	0.4335	-4.5471	-4.7338 C
330 H330	-0.1945	-4.5353	-5.6347 H
331 H331	1.4817	-4.6597	-5.0185 H
332 H332	0.1174	-5.4140	-4.1385 H
333 C333	0.7700	-0.8647	-4.5704 C
334 H334	0.8622	-1.9117	-4.2240 H
335 O335	1.1438	0.0634	-3.8446 O
336 C336	0.1762	-0.6872	-5.9398 C
337 H337	-0.8296	-1.1265	-5.9750 H
338 H338	0.1233	0.3723	-6.1991 H
339 H339	0.7810	-1.2200	-6.6855 H
340 C340	0.8755	1.8072	3.7085 C
341 H341	0.2321	0.9393	3.9481 H
342 O342	1.7149	1.7257	2.8048 O
343 C343	0.6432	3.0340	4.5452 C
344 H344	0.7998	2.8021	5.6071 H
345 H345	1.3179	3.8372	4.2415 H
346 H346	-0.3978	3.3685	4.4441 H
347 C347	3.5385	0.6648	6.2128 C
348 H348	2.7549	-0.1028	6.3595 H
349 O349	4.2249	0.6609	5.1848 O
350 C350	3.6817	1.6631	7.3272 C
351 H351	3.9105	1.1471	8.2692 H
352 H352	4.4739	2.3794	7.0992 H
353 H353	2.7343	2.1968	7.4801 H
354 C354	0.4090	-3.7156	5.6984 C
355 H355	0.1769	-4.5688	5.0330 H
356 O356	1.2856	-2.9035	5.3822 O
357 C357	-0.4029	-3.6417	6.9611 C
358 H358	-0.2652	-4.5566	7.5527 H
359 H359	-0.1089	-2.7732	7.5544 H
360 H360	-1.4722	-3.5786	6.7193 H
361 C361	5.9183	-2.4908	5.4150 C
362 H362	5.0156	-2.8691	5.9314 H
363 O363	5.8387	-2.0714	4.2550 O
364 C364	7.1877	-2.5333	6.2186 C
365 H365	7.4040	-3.5644	6.5287 H
366 H366	8.0235	-2.1429	5.6341 H
367 H367	7.0727	-1.9435	7.1377 H
368 C368	-5.2895	1.8196	0.7832 C
369 H369	-5.0400	2.8489	1.1039 H
370 O370	-6.1038	1.6348	-0.1283 O
371 C371	-4.5794	0.7218	1.5246 C
372 H372	-4.8018	0.7861	2.5981 H
373 H373	-4.8843	-0.2555	1.1445 H
374 H374	-3.4925	0.8364	1.4187 H
@<TRIPOS>BOND
1 1 2 2
2 1 3 1
3 1 15 1
4 3 4 1
5 5 14 1
6 5 15 1
7 5 24 1
8 6 7 1
9 6 8 1
10 6 24 2
11 9 10 1
12 9 11 1
13 9 12 1
14 9 24 1
15 13 14 1
16 13 16 1
17 13 17 1
18 13 18 1
19 14 19 1
20 14 20 1
21 15 16 1
22 15 21 1
23 16 22 1
24 16 23 1
25 25 26 1
26 25 27 2
27 25 28 1
28 28 29 1
29 28 30 1
30 28 31 1
31 32 33 1
32 32 34 2
33 32 35 1
34 35 36 1
35 35 37 1
36 35 38 1
37 39 40 1
38 39 41 2
39 39 42 1
40 42 43 1
41 42 44 1
42 42 45 1
43 46 47 1
44 46 48 2
45 46 49 1
46 49 50 1
47 49 51 1
48 49 52 1
49 53 54 1
50 53 55 2
51 53 56 1
52 56 57 1
53 56 58 1
54 56 59 1
55 60 61 1
56 60 62 2
57 60 63 1
58 63 64 1
59 63 65 1
60 63 66 1
61 67 68 1
62 67 69 2
63 67 70 1
64 70 71 1
65 70 72 1
66 70 73 1
67 74 75 1
68 74 76 2
69 74 77 1
70 77 78 1
71 77 79 1
72 77 80 1
73 81 82 1
74 81 83 2
75 81 84 1
76 84 85 1
77 84 86 1
78 84 87 1
79 88 89 1
80 88 90 2
81 88 91 1
82 91 92 1
83 91 93 1
84 91 94 1
85 95 96 1
86 95 97 2
87 95 98 1
88 98 99 1
89 98 100 1
90 98 101 1
91 102 103 1
92 102 104 2
93 102 105 1
94 105 106 1
95 105 107 1
96 105 108 1
97 109 110 1
98 109 111 2
99 109 112 1
100 112 113 1
101 112 114 1
102 112 115 1
103 116 117 1
104 116 118 2
105 116 119 1
106 119 120 1
107 119 121 1
108 119 122 1
109 123 124 1
110 123 125 2
111 123 126 1
112 126 127 1
113 126 128 1
114 126 129 1
115 130 131 1
116 130 132 2
117 130 133 1
118 133 134 1
119 133 135 1
120 133 136 1
121 137 138 1
122 137 139 2
123 137 140 1
124 140 141 1
125 140 142 1
126 140 143 1
127 144 145 1
128 144 146 2
129 144 147 1
130 147 148 1
131 147 149 1
132 147 150 1
133 151 152 1
134 151 153 2
135 151 154 1
136 154 155 1
137 154 156 1
138 154 157 1
139 158 159 1
140 158 160 2
141 158 161 1
142 161 162 1
143 161 163 1
144 161 164 1
145 165 166 1
146 165 167 2
147 165 168 1
148 168 169 1
149 168 170 1
150 168 171 1
151 172 173 1
152 172 174 2
153 172 175 1
154 175 176 1
155 175 177 1
156 175 178 1
157 179 180 1
158 179 181 2
159 179 182 1
160 182 183 1
161 182 184 1
162 182 185 1
163 186 187 1
164 186 188 2
165 186 189 1
166 189 190 1
167 189 191 1
168 189 192 1
169 193 194 1
170 193 195 2
171 193 196 1
172 196 197 1
173 196 198 1
174 196 199 1
175 200 201 1
176 200 202 2
177 200 203 1
178 203 204 1
179 203 205 1
180 203 206 1
181 207 208 1
182 207 209 2
183 207 210 1
184 210 211 1
185 210 212 1
186 210 213 1
187 214 215 1
188 214 216 2
189 214 217 1
190 217 218 1
191 217 219 1
192 217 220 1
193 221 222 1
194 221 223 2
195 221 224 1
196 224 225 1
197 224 226 1
198 224 227 1
199 228 229 1
200 228 230 2
201 228 231 1
202 231 232 1
203 231 233 1
204 231 234 1
205 235 236 1
206 235 237 2
207 235 238 1
208 238 239 1
209 238 240 1
210 238 241 1
211 242 243 1
212 242 244 2
213 242 245 1
214 245 246 1
215 245 247 1
216 245 248 1
217 249 250 1
218 249 251 2
219 249 252 1
220 252 253 1
221 252 254 1
222 252 255 1
223 256 257 1
224 256 258 2
225 256 259 1
226 259 260 1
227 259 261 1
228 259 262 1
229 263 264 1
230 263 265 2
231 263 266 1
232 266 267 1
233 266 268 1
234 266 269 1
235 270 271 1
236 270 272 2
237 270 273 1
238 273 274 1
239 273 275 1
240 273 276 1
241 277 278 1
242 277 279 2
243 277 280 1
244 280 281 1
245 280 282 1
246 280 283 1
247 284 285 1
248 284 286 2
249 284 287 1
250 287 288 1
251 287 289 1
252 287 290 1
253 291 292 1
254 291 293 2
255 291 294 1
256 294 295 1
257 294 296 1
258 294 297 1
259 298 299 1
260 298 300 2
261 298 301 1
262 301 302 1
263 301 303 1
264 301 304 1
265 305 306 1
266 305 307 2
267 305 308 1
268 308 309 1
269 308 310 1
270 308 311 1
271 312 313 1
272 312 314 2
273 312 315 1
274 315 316 1
275 315 317 1
276 315 318 1
277 319 320 1
278 319 321 2
279 319 322 1
280 322 323 1
281 322 324 1
282 322 325 1
283 326 327 1
284 326 328 2
285 326 329 1
286 329 330 1
287 329 331 1
288 329 332 1
289 333 334 1
290 333 335 2
291 333 336 1
292 336 337 1
293 336 338 1
294 336 339 1
295 340 341 1
296 340 342 2
297 340 343 1
298 343 344 1
299 343 345 1
300 343 346 1
301 347 348 1
302 347 349 2
303 347 350 1
304 350 351 1
305 350 352 1
306 350 353 1
307 354 355 1
308 354 356 2
309 354 357 1
310 357 358 1
311 357 359 1
312 357 360 1
313 361 362 1
314 361 363 2
315 361 364 1
316 364 365 1
317 364 366 1
318 364 367 1
319 368 369 1
320 368 370 2
321 368 371 1
322 371 372 1
323 371 373 1
324 371 374 1
