@<TRIPOS>MOLECULE
Molecule Name
374 324
SMALL
NO_CHARGES

@<TRIPOS>ATOM
1 C1	0.0000	0.0000	0.0000 C
2 O2	-1.2238	0.0000	0.0000 O
3 O3	0.6911	1.2023	0.0000 O
4 H4	1.6618	1.0855	0.0468 H
5 N5	0.4154	-2.3123	0.8346 N
6 C6	0.9921	-1.0361	2.8093 C
7 H7	1.3139	-0.1587	2.2637 H
8 H8	1.0505	-0.9738	3.8878 H
9 C9	0.4970	-2.1505	2.2199 C
10 C10	0.0134	-3.3188	3.0505 C
11 H11	0.6064	-4.2242	2.8675 H
12 H12	0.0894	-3.0775	4.1124 H
13 H13	-1.0341	-3.5607	2.8327 H
14 C14	0.5538	-3.4266	-1.2302 C
15 C15	-0.1598	-3.4727	0.1306 C
16 C16	0.8617	-1.2747	-0.0870 C
17 C17	0.6988	-1.9138	-1.5035 C
18 H18	1.5392	-3.9000	-1.1496 H
19 H19	-0.0076	-3.9368	-2.0184 H
20 H20	0.0413	-4.4000	0.6715 H
21 H21	-1.2492	-3.3735	0.0102 H
22 H22	1.9140	-1.0212	0.1250 H
23 H23	-0.2148	-1.5302	-1.9695 H
24 H24	1.5420	-1.6741	-2.1569 H
25 C25	4.6528	0.9043	-2.0982 C
26 H26	4.8088	1.9509	-1.7741 H
27 O27	3.8495	0.1825	-1.4968 O
28 C28	5.4702	0.4655	-3.2808 C
29 H29	6.5406	0.5775	-3.0624 H
30 H30	5.2534	-0.5753	-3.5303 H
31 H31	5.2548	1.1052	-4.1469 H
32 C32	2.6143	3.7907	0.8619 C
33 H33	2.3901	4.1290	1.8914 H
34 O34	3.5716	3.0374	0.6517 O
35 C35	1.6899	4.3087	-0.2041 C
36 H36	1.7057	5.4067	-0.2166 H
37 H37	1.9838	3.9262	-1.1839 H
38 H38	0.6563	4.0091	0.0143 H
39 C39	3.9997	1.9761	-2.3604 C
40 H40	4.8462	2.4185	-1.8014 H
41 O41	3.5376	0.8811	-2.0209 O
42 C42	3.4904	2.7929	-3.5148 C
43 H43	4.2973	2.9670	-4.2392 H
44 H44	2.6592	2.2832	-4.0065 H
45 H45	3.1620	3.7800	-3.1631 H
46 C46	2.4302	4.2097	-0.9709 C
47 H47	1.3912	3.9572	-1.2562 H
48 O48	3.0289	3.5205	-0.1375 O
49 C49	3.0154	5.4109	-1.6591 C
50 H50	2.4020	6.2988	-1.4555 H
51 H51	4.0384	5.5856	-1.3192 H
52 H52	3.0081	5.2636	-2.7473 H
53 C53	4.7901	1.8287	0.2535 C
54 H54	4.5994	1.9614	1.3355 H
55 O55	4.4227	0.7963	-0.3185 O
56 C56	5.5031	2.9668	-0.4213 C
57 H57	6.4765	3.1394	0.0572 H
58 H58	5.6485	2.7517	-1.4820 H
59 H59	4.9258	3.8941	-0.3084 H
60 C60	3.7339	3.1845	2.6220 C
61 H61	3.8078	2.7687	3.6449 H
62 O62	3.4983	2.4383	1.6652 O
63 C63	3.9371	4.6697	2.5121 C
64 H64	4.9271	4.9450	2.8996 H
65 H65	3.8471	4.9920	1.4726 H
66 H66	3.1976	5.1986	3.1279 H
67 C67	4.9837	1.1142	-1.0607 C
68 H68	4.6466	0.4591	-1.8864 H
69 O69	4.4607	1.0231	0.0557 O
70 C70	6.0837	2.0777	-1.4083 C
71 H71	5.7651	2.7342	-2.2290 H
72 H72	6.3523	2.6812	-0.5387 H
73 H73	6.9664	1.5304	-1.7647 H
74 C74	-1.9458	2.5334	-2.3122 C
75 H75	-1.4405	2.9311	-1.4116 H
76 O76	-1.3584	2.5259	-3.3999 O
77 C77	-3.3450	2.0282	-2.0981 C
78 H78	-3.9802	2.8320	-1.7024 H
79 H79	-3.7648	1.6562	-3.0351 H
80 H80	-3.3461	1.2256	-1.3487 H
81 C81	0.9354	3.4504	-2.4774 C
82 H82	0.1657	3.7183	-1.7289 H
83 O83	1.9376	2.8130	-2.1348 O
84 C84	0.6603	3.9123	-3.8810 C
85 H85	0.5560	5.0053	-3.9052 H
86 H86	1.4675	3.6056	-4.5496 H
87 H87	-0.2915	3.4953	-4.2360 H
88 C88	-3.4653	-1.3047	-3.9179 C
89 H89	-4.2177	-1.1896	-4.7212 H
90 O90	-2.3560	-1.7870	-4.1723 O
91 C91	-3.8990	-0.8416	-2.5553 C
92 H92	-4.7947	-1.3916	-2.2370 H
93 H93	-3.0984	-0.9915	-1.8279 H
94 H94	-4.1743	0.2209	-2.5875 H
95 C95	1.9842	4.7182	0.6250 C
96 H96	1.3438	4.7392	1.5272 H
97 O97	2.6173	3.6960	0.3381 O
98 C98	2.0100	5.9880	-0.1787 C
99 H99	2.3603	6.8220	0.4440 H
100 H100	2.6638	5.8780	-1.0465 H
101 H101	0.9955	6.2451	-0.5111 H
102 C102	-3.7218	1.2221	-1.0869 C
103 H103	-4.0752	1.0116	-0.0595 H
104 O104	-3.9239	0.4043	-1.9915 O
105 C105	-3.0078	2.5321	-1.2688 C
106 H106	-2.1291	2.5777	-0.6116 H
107 H107	-2.6958	2.6564	-2.3079 H
108 H108	-3.6640	3.3633	-0.9785 H
109 C109	4.4769	-0.9550	2.8046 C
110 H110	5.0858	-0.5503	3.6353 H
111 O111	4.0882	-0.2077	1.8999 O
112 C112	4.1817	-2.4269	2.8774 C
113 H113	3.6486	-2.6595	3.8090 H
114 H114	3.5789	-2.7387	2.0219 H
115 H115	5.1186	-2.9994	2.8972 H
116 C116	-2.9416	3.4613	2.0472 C
117 H117	-2.1023	3.0016	2.6030 H
118 O118	-3.7519	4.1856	2.6361 O
119 C119	-2.9998	3.1374	0.5807 C
120 H120	-3.0763	2.0514	0.4366 H
121 H121	-3.8549	3.6308	0.1138 H
122 H122	-2.0733	3.4582	0.0861 H
123 C123	-3.2451	-0.3706	2.5011 C
124 H124	-3.7602	-1.0979	1.8450 H
125 O125	-2.4511	-0.7665	3.3618 O
126 C126	-3.5859	1.0730	2.2582 C
127 H127	-4.6647	1.2330	2.3867 H
128 H128	-3.0347	1.7169	2.9467 H
129 H129	-3.3457	1.3486	1.2227 H
130 C130	-4.0609	0.1210	3.5749 C
131 H131	-4.4694	-0.7627	3.0488 H
132 O132	-4.6373	0.5697	4.5722 O
133 C133	-2.8009	0.6955	2.9907 C
134 H134	-2.9700	0.9932	1.9473 H
135 H135	-2.4704	1.5601	3.5702 H
136 H136	-2.0091	-0.0653	2.9787 H
137 C137	0.5351	1.8047	-3.7933 C
138 H138	1.1717	2.7099	-3.7938 H
139 O139	0.7391	0.9041	-2.9715 O
140 C140	-0.5476	1.7757	-4.8354 C
141 H141	-0.1084	1.8585	-5.8385 H
142 H142	-1.1239	0.8510	-4.7622 H
143 H143	-1.2157	2.6381	-4.7098 H
144 C144	-0.6123	2.4099	-3.2814 C
145 H145	-0.6288	2.6904	-4.3518 H
146 O146	-0.3983	1.2382	-2.9510 O
147 C147	-0.8626	3.5337	-2.3152 C
148 H148	-1.8418	3.9900	-2.5122 H
149 H149	-0.8281	3.1683	-1.2866 H
150 H150	-0.1118	4.3233	-2.4518 H
151 C151	-2.1438	4.1358	-1.0037 C
152 H152	-1.7168	3.9444	-2.0066 H
153 O153	-1.7097	5.0638	-0.3121 O
154 C154	-3.2474	3.2061	-0.5832 C
155 H155	-2.8883	2.1682	-0.5862 H
156 H156	-3.6077	3.4669	0.4141 H
157 H157	-4.0773	3.2564	-1.3004 H
158 C158	-3.0638	-0.5491	4.2098 C
159 H159	-1.9945	-0.8071	4.3307 H
160 O160	-3.7154	-0.1387	5.1767 O
161 C161	-3.6211	-0.7358	2.8264 C
162 H162	-3.5057	-1.7813	2.5108 H
163 H163	-4.6769	-0.4585	2.7990 H
164 H164	-3.0599	-0.1241	2.1076 H
165 C165	-4.2844	-3.7217	-1.6629 C
166 H166	-4.8099	-3.6485	-0.6918 H
167 O167	-3.2090	-4.3260	-1.7417 O
168 C168	-4.9689	-3.0496	-2.8201 C
169 H169	-5.1053	-1.9806	-2.6089 H
170 H170	-4.3833	-3.1714	-3.7338 H
171 H171	-5.9711	-3.4745	-2.9645 H
172 C172	-0.1195	5.5274	0.0736 C
173 H173	-0.2556	5.6426	1.1657 H
174 O174	0.7242	6.2077	-0.5209 O
175 C175	-1.0138	4.5153	-0.5859 C
176 H176	-2.0673	4.7772	-0.4198 H
177 H177	-0.8119	4.4678	-1.6580 H
178 H178	-0.8588	3.5252	-0.1369 H
179 C179	-2.2555	3.2694	-2.9260 C
180 H180	-3.2412	3.7202	-2.7029 H
181 O181	-2.0082	2.8516	-4.0628 O
182 C182	-1.2935	3.2158	-1.7725 C
183 H183	-1.7289	2.6412	-0.9440 H
184 H184	-0.3513	2.7581	-2.0814 H
185 H185	-1.1045	4.2281	-1.3911 H
186 C186	-4.5593	-3.6582	2.7826 C
187 H187	-4.9142	-3.9245	3.7964 H
188 O188	-3.6611	-4.3177	2.2474 O
189 C189	-5.2395	-2.4769	2.1495 C
190 H190	-5.1116	-1.5858	2.7785 H
191 H191	-4.8288	-2.2867	1.1556 H
192 H192	-6.3197	-2.6590	2.0739 H
193 C193	-2.5941	-1.5653	-3.7042 C
194 H194	-3.2929	-1.1885	-2.9333 H
195 O195	-2.1399	-2.7120	-3.6217 O
196 C196	-2.2659	-0.5981	-4.8069 C
197 H197	-1.8203	0.3143	-4.3886 H
198 H198	-1.5735	-1.0514	-5.5194 H
199 H199	-3.1836	-0.2929	-5.3270 H
200 C200	-1.9648	-3.0732	-5.1133 C
201 H201	-2.7428	-3.8309	-4.9008 H
202 O202	-0.8593	-3.1495	-4.5655 O
203 C203	-2.3605	-1.9955	-6.0834 C
204 H204	-3.2406	-1.4555	-5.7095 H
205 H205	-1.5363	-1.2949	-6.2335 H
206 H206	-2.6468	-2.4402	-7.0457 H
207 C207	4.3983	-3.2858	0.9849 C
208 H208	3.5435	-3.6205	1.6029 H
209 O209	4.4474	-2.1211	0.5739 O
210 C210	5.4425	-4.3304	0.7065 C
211 H211	4.9904	-5.1882	0.1909 H
212 H212	6.2450	-3.9149	0.0933 H
213 H213	5.8575	-4.7103	1.6495 H
214 C214	-1.5548	-7.8221	-0.0388 C
215 H215	-2.2069	-7.7832	0.8545 H
216 O216	-0.8700	-6.8410	-0.3494 O
217 C217	-1.5797	-9.1173	-0.8010 C
218 H218	-2.6011	-9.3365	-1.1396 H
219 H219	-0.9103	-9.0669	-1.6623 H
220 H220	-1.2780	-9.9461	-0.1470 H
221 C221	-0.8471	-7.6456	1.8379 C
222 H222	-1.3084	-7.3107	2.7863 H
223 O223	0.1746	-7.0920	1.4163 O
224 C224	-1.5463	-8.7815	1.1451 C
225 H225	-2.5837	-8.5031	0.9164 H
226 H226	-1.0252	-9.0453	0.2223 H
227 H227	-1.5915	-9.6567	1.8066 H
228 C228	-0.7684	-7.5714	2.7818 C
229 H229	-1.6082	-8.0632	3.3085 H
230 O230	-0.9879	-6.6392	2.0002 O
231 C231	0.5972	-8.1175	3.0918 C
232 H232	0.6426	-9.1856	2.8407 H
233 H233	1.3619	-7.5757	2.5312 H
234 H234	0.8011	-8.0360	4.1677 H
235 C235	-4.1032	-2.4253	-2.4110 C
236 H236	-3.5956	-1.5363	-2.8311 H
237 O237	-3.4961	-3.1808	-1.6437 O
238 C238	-5.5306	-2.6176	-2.8407 C
239 H239	-5.5875	-2.7025	-3.9342 H
240 H240	-5.9509	-3.5144	-2.3805 H
241 H241	-6.1309	-1.7423	-2.5592 H
242 C242	-2.5833	-6.8852	1.6874 C
243 H243	-2.8547	-6.1971	2.5105 H
244 O244	-1.7550	-6.5387	0.8378 O
245 C245	-3.2829	-8.2154	1.7000 C
246 H246	-4.3704	-8.0704	1.6515 H
247 H247	-2.9562	-8.8272	0.8565 H
248 H248	-3.0751	-8.7424	2.6407 H
249 C249	3.5476	1.5500	-3.2485 C
250 H250	3.1392	0.6664	-3.7746 H
251 O251	2.9713	1.9988	-2.2513 O
252 C252	4.8077	2.1246	-3.8327 C
253 H253	4.6385	2.4223	-4.8762 H
254 H254	5.1381	2.9892	-3.2532 H
255 H255	5.5994	1.3638	-3.8447 H
256 C256	-2.8483	-6.5588	0.1143 C
257 H257	-3.3029	-6.3617	1.1038 H
258 O258	-1.6193	-6.5408	-0.0176 O
259 C259	-3.8190	-6.8368	-0.9990 C
260 H260	-4.5035	-5.9872	-1.1240 H
261 H261	-3.2859	-7.0194	-1.9344 H
262 H262	-4.4384	-7.7089	-0.7508 H
263 C263	1.8208	-7.3499	0.2286 C
264 H264	2.2897	-6.6619	-0.5004 H
265 O265	1.1906	-6.8975	1.1910 O
266 C266	2.0137	-8.8145	-0.0488 C
267 H267	3.0847	-9.0560	-0.0749 H
268 H268	1.5201	-9.4168	0.7168 H
269 H269	1.6074	-9.0683	-1.0369 H
270 C270	4.5998	-4.2672	-3.4127 C
271 H271	5.5018	-3.7464	-3.7865 H
272 O272	4.0562	-3.8925	-2.3677 O
273 C273	4.1219	-5.4168	-4.2548 C
274 H274	4.9137	-6.1723	-4.3466 H
275 H275	3.2317	-5.8699	-3.8135 H
276 H276	3.8946	-5.0709	-5.2719 H
277 C277	-1.8364	-7.5146	-1.8797 C
278 H278	-2.4578	-7.7338	-2.7688 H
279 O279	-1.2864	-6.4137	-1.7642 O
280 C280	-1.7301	-8.6278	-0.8754 C
281 H281	-1.3078	-9.5243	-1.3488 H
282 H282	-1.1015	-8.3258	-0.0351 H
283 H283	-2.7282	-8.9030	-0.5096 H
284 C284	2.0695	-3.9287	-5.4181 C
285 H285	1.4578	-3.8680	-6.3383 H
286 O286	1.5632	-3.6741	-4.3195 O
287 C287	3.5036	-4.3302	-5.6209 C
288 H288	4.0035	-3.6191	-6.2920 H
289 H289	4.0299	-4.3645	-4.6646 H
290 H290	3.5553	-5.3139	-6.1061 H
291 C291	-3.3024	1.2617	-4.2175 C
292 H292	-3.0598	2.3256	-4.0334 H
293 O293	-3.6154	0.8849	-5.3525 O
294 C294	-3.2193	0.3627	-3.0159 C
295 H295	-3.9020	0.7164	-2.2318 H
296 H296	-3.4734	-0.6639	-3.2882 H
297 H297	-2.2069	0.3923	-2.5915 H
298 C298	-0.4354	5.6657	-1.3627 C
299 H299	-1.1501	6.0458	-0.6082 H
300 O300	-0.5950	5.9352	-2.5585 O
301 C301	0.6921	4.8316	-0.8221 C
302 H302	0.2936	3.9581	-0.2889 H
303 H303	1.3453	4.5007	-1.6322 H
304 H304	1.2735	5.4103	-0.0921 H
305 C305	1.3808	-7.7252	-2.3998 C
306 H306	2.2640	-8.3435	-2.1502 H
307 O307	1.3235	-6.5477	-2.0277 O
308 C308	0.3104	-8.4187	-3.1949 C
309 H309	-0.0572	-9.2970	-2.6476 H
310 H310	-0.5192	-7.7373	-3.3951 H
311 H311	0.7232	-8.7865	-4.1436 H
312 C312	-3.8795	0.8075	1.0466 C
313 H313	-3.9889	-0.0893	0.4076 H
314 O314	-3.5395	0.6882	2.2290 O
315 C315	-4.1693	2.1198	0.3734 C
316 H316	-5.1965	2.1261	-0.0151 H
317 H317	-4.0369	2.9465	1.0745 H
318 H318	-3.5035	2.2569	-0.4890 H
319 C319	5.5110	-1.4980	0.8343 C
320 H320	5.5853	-0.4257	0.5712 H
321 O321	4.4260	-2.0838	0.7469 O
322 C322	6.7915	-2.1427	1.2857 C
323 H323	7.1854	-1.6222	2.1689 H
324 H324	6.6263	-3.1957	1.5234 H
325 H325	7.5546	-2.0568	0.5007 H
326 C326	-4.2221	-1.3351	1.9390 C
327 H327	-4.1323	-0.2520	1.7309 H
328 O328	-3.2151	-2.0521	1.9370 O
329 C329	-5.6159	-1.8275	2.2108 C
330 H330	-6.2669	-1.6105	1.3534 H
331 H331	-5.6107	-2.9021	2.4050 H
332 H332	-6.0416	-1.2985	3.0738 H
333 C333	-2.2735	-2.3938	6.9685 C
334 H334	-3.1743	-2.9498	6.6458 H
335 O335	-1.1528	-2.7616	6.5988 O
336 C336	-2.5296	-1.2076	7.8552 C
337 H337	-3.0550	-1.5236	8.7663 H
338 H338	-1.5895	-0.7209	8.1237 H
339 H339	-3.1846	-0.4890	7.3449 H
340 C340	-4.1212	-3.2606	4.3219 C
341 H341	-4.1658	-2.2150	4.6813 H
342 O342	-3.1541	-3.9744	4.6105 O
343 C343	-5.2905	-3.7085	3.4905 C
344 H344	-5.3905	-3.0685	2.6037 H
345 H345	-5.1635	-4.7479	3.1806 H
346 H346	-6.2222	-3.6051	4.0625 H
347 C347	0.1489	-6.7539	4.8352 C
348 H348	0.5369	-5.9738	5.5174 H
349 O349	0.6403	-6.8931	3.7095 O
350 C350	-0.9771	-7.5871	5.3803 C
351 H351	-1.8263	-6.9447	5.6492 H
352 H352	-1.2958	-8.3278	4.6439 H
353 H353	-0.6597	-8.0947	6.3009 H
354 C354	-1.1315	2.5435	-4.1924 C
355 H355	-1.2971	1.6145	-4.7705 H
356 O356	-1.4562	3.6366	-4.6696 O
357 C357	-0.5053	2.3590	-2.8386 C
358 H358	0.4704	1.8649	-2.9381 H
359 H359	-0.3796	3.3229	-2.3410 H
360 H360	-1.1312	1.7028	-2.2193 H
361 C361	-4.8047	-5.7206	0.9183 C
362 H362	-5.8062	-6.1760	1.0374 H
363 O363	-4.0242	-6.1544	0.0635 O
364 C364	-4.4985	-4.5806	1.8489 C
365 H365	-4.5775	-4.9134	2.8924 H
366 H366	-3.4945	-4.1937	1.6620 H
367 H367	-5.2345	-3.7767	1.7160 H
368 C368	0.8346	3.2995	6.1149 C
369 H369	-0.2234	3.5298	5.8865 H
370 O370	1.6846	4.1965	6.0849 O
371 C371	1.1257	1.8631	6.4485 C
372 H372	0.8290	1.2140	5.6139 H
373 H373	2.1886	1.7275	6.6592 H
374 H374	0.5340	1.5503	7.3191 H
@<TRIPOS>BOND
1 1 2 2
2 1 3 1
3 1 16 1
4 3 4 1
5 5 9 1
6 5 15 1
7 5 16 1
8 6 7 1
9 6 8 1
10 6 9 2
11 9 10 1
12 10 11 1
13 10 12 1
14 10 13 1
15 14 15 1
16 14 17 1
17 14 18 1
18 14 19 1
19 15 20 1
20 15 21 1
21 16 17 1
22 16 22 1
23 17 23 1
24 17 24 1
25 25 26 1
26 25 27 2
27 25 28 1
28 28 29 1
29 28 30 1
30 28 31 1
31 32 33 1
32 32 34 2
33 32 35 1
34 35 36 1
35 35 37 1
36 35 38 1
37 39 40 1
38 39 41 2
39 39 42 1
40 42 43 1
41 42 44 1
42 42 45 1
43 46 47 1
44 46 48 2
45 46 49 1
46 49 50 1
47 49 51 1
48 49 52 1
49 53 54 1
50 53 55 2
51 53 56 1
52 56 57 1
53 56 58 1
54 56 59 1
55 60 61 1
56 60 62 2
57 60 63 1
58 63 64 1
59 63 65 1
60 63 66 1
61 67 68 1
62 67 69 2
63 67 70 1
64 70 71 1
65 70 72 1
66 70 73 1
67 74 75 1
68 74 76 2
69 74 77 1
70 77 78 1
71 77 79 1
72 77 80 1
73 81 82 1
74 81 83 2
75 81 84 1
76 84 85 1
77 84 86 1
78 84 87 1
79 88 89 1
80 88 90 2
81 88 91 1
82 91 92 1
83 91 93 1
84 91 94 1
85 95 96 1
86 95 97 2
87 95 98 1
88 98 99 1
89 98 100 1
90 98 101 1
91 102 103 1
92 102 104 2
93 102 105 1
94 105 106 1
95 105 107 1
96 105 108 1
97 109 110 1
98 109 111 2
99 109 112 1
100 112 113 1
101 112 114 1
102 112 115 1
103 116 117 1
104 116 118 2
105 116 119 1
106 119 120 1
107 119 121 1
108 119 122 1
109 123 124 1
110 123 125 2
111 123 126 1
112 126 127 1
113 126 128 1
114 126 129 1
115 130 131 1
116 130 132 2
117 130 133 1
118 133 134 1
119 133 135 1
120 133 136 1
121 137 138 1
122 137 139 2
123 137 140 1
124 140 141 1
125 140 142 1
126 140 143 1
127 144 145 1
128 144 146 2
129 144 147 1
130 147 148 1
131 147 149 1
132 147 150 1
133 151 152 1
134 151 153 2
135 151 154 1
136 154 155 1
137 154 156 1
138 154 157 1
139 158 159 1
140 158 160 2
141 158 161 1
142 161 162 1
143 161 163 1
144 161 164 1
145 165 166 1
146 165 167 2
147 165 168 1
148 168 169 1
149 168 170 1
150 168 171 1
151 172 173 1
152 172 174 2
153 172 175 1
154 175 176 1
155 175 177 1
156 175 178 1
157 179 180 1
158 179 181 2
159 179 182 1
160 182 183 1
161 182 184 1
162 182 185 1
163 186 187 1
164 186 188 2
165 186 189 1
166 189 190 1
167 189 191 1
168 189 192 1
169 193 194 1
170 193 195 2
171 193 196 1
172 196 197 1
173 196 198 1
174 196 199 1
175 200 201 1
176 200 202 2
177 200 203 1
178 203 204 1
179 203 205 1
180 203 206 1
181 207 208 1
182 207 209 2
183 207 210 1
184 210 211 1
185 210 212 1
186 210 213 1
187 214 215 1
188 214 216 2
189 214 217 1
190 217 218 1
191 217 219 1
192 217 220 1
193 221 222 1
194 221 223 2
195 221 224 1
196 224 225 1
197 224 226 1
198 224 227 1
199 228 229 1
200 228 230 2
201 228 231 1
202 231 232 1
203 231 233 1
204 231 234 1
205 235 236 1
206 235 237 2
207 235 238 1
208 238 239 1
209 238 240 1
210 238 241 1
211 242 243 1
212 242 244 2
213 242 245 1
214 245 246 1
215 245 247 1
216 245 248 1
217 249 250 1
218 249 251 2
219 249 252 1
220 252 253 1
221 252 254 1
222 252 255 1
223 256 257 1
224 256 258 2
225 256 259 1
226 259 260 1
227 259 261 1
228 259 262 1
229 263 264 1
230 263 265 2
231 263 266 1
232 266 267 1
233 266 268 1
234 266 269 1
235 270 271 1
236 270 272 2
237 270 273 1
238 273 274 1
239 273 275 1
240 273 276 1
241 277 278 1
242 277 279 2
243 277 280 1
244 280 281 1
245 280 282 1
246 280 283 1
247 284 285 1
248 284 286 2
249 284 287 1
250 287 288 1
251 287 289 1
252 287 290 1
253 291 292 1
254 291 293 2
255 291 294 1
256 294 295 1
257 294 296 1
258 294 297 1
259 298 299 1
260 298 300 2
261 298 301 1
262 301 302 1
263 301 303 1
264 301 304 1
265 305 306 1
266 305 307 2
267 305 308 1
268 308 309 1
269 308 310 1
270 308 311 1
271 312 313 1
272 312 314 2
273 312 315 1
274 315 316 1
275 315 317 1
276 315 318 1
277 319 320 1
278 319 321 2
279 319 322 1
280 322 323 1
281 322 324 1
282 322 325 1
283 326 327 1
284 326 328 2
285 326 329 1
286 329 330 1
287 329 331 1
288 329 332 1
289 333 334 1
290 333 335 2
291 333 336 1
292 336 337 1
293 336 338 1
294 336 339 1
295 340 341 1
296 340 342 2
297 340 343 1
298 343 344 1
299 343 345 1
300 343 346 1
301 347 348 1
302 347 349 2
303 347 350 1
304 350 351 1
305 350 352 1
306 350 353 1
307 354 355 1
308 354 356 2
309 354 357 1
310 357 358 1
311 357 359 1
312 357 360 1
313 361 362 1
314 361 363 2
315 361 364 1
316 364 365 1
317 364 366 1
318 364 367 1
319 368 369 1
320 368 370 2
321 368 371 1
322 371 372 1
323 371 373 1
324 371 374 1
