@<TRIPOS>MOLECULE
Molecule Name
374 324
SMALL
NO_CHARGES

@<TRIPOS>ATOM
1 C1	0.0000	0.0000	0.0000 C
2 O2	-1.2291	0.0000	0.0000 O
3 O3	0.7352	1.1552	0.0000 O
4 H4	1.6938	0.8931	0.0110 H
5 N5	2.2937	-0.9966	-0.0600 N
6 C6	4.3264	-1.2975	-1.3542 C
7 H7	4.9387	-1.5024	-0.4856 H
8 H8	4.8366	-1.2720	-2.3088 H
9 C9	3.0003	-1.0568	-1.2920 C
10 C10	2.1883	-0.7612	-2.5344 C
11 H11	1.6350	0.1810	-2.4407 H
12 H12	2.8486	-0.6815	-3.4004 H
13 H13	1.4567	-1.5502	-2.7497 H
14 C14	1.8555	-1.4869	2.2293 C
15 C15	2.9868	-1.3898	1.1948 C
16 C16	0.8350	-1.2926	0.0333 C
17 C17	0.6718	-2.0187	1.3955 C
18 H18	2.1145	-2.1442	3.0638 H
19 H19	1.6223	-0.4975	2.6408 H
20 H20	3.4868	-2.3620	1.0621 H
21 H21	3.7527	-0.6521	1.4544 H
22 H22	0.4859	-1.9242	-0.7878 H
23 H23	-0.3076	-1.8236	1.8380 H
24 H24	0.7692	-3.0998	1.2445 H
25 C25	3.0656	2.9468	2.5882 C
26 H26	2.0611	3.2325	2.2221 H
27 O27	3.7260	2.0942	1.9841 O
28 C28	3.5277	3.6587	3.8286 C
29 H29	2.8232	3.4791	4.6517 H
30 H30	4.5240	3.3167	4.1169 H
31 H31	3.5450	4.7432	3.6572 H
32 C32	3.7070	3.6530	1.2731 C
33 H33	4.3992	4.4371	0.9117 H
34 O34	3.8249	2.4896	0.8723 O
35 C35	2.6614	4.1141	2.2494 C
36 H36	2.0449	4.9029	1.7979 H
37 H37	2.0257	3.2791	2.5515 H
38 H38	3.1393	4.5533	3.1351 H
39 C39	-1.7596	3.4395	-2.4115 C
40 H40	-0.7265	3.0585	-2.3007 H
41 O41	-2.0888	4.0491	-3.4352 O
42 C42	-2.6790	3.1592	-1.2560 C
43 H43	-2.2724	3.5979	-0.3350 H
44 H44	-3.6726	3.5687	-1.4501 H
45 H45	-2.7525	2.0769	-1.0859 H
46 C46	-2.0422	2.4081	3.3481 C
47 H47	-3.0165	2.0743	3.7530 H
48 O48	-1.0225	2.3285	4.0424 O
49 C49	-2.0748	2.9411	1.9432 C
50 H50	-2.7589	3.7979	1.8802 H
51 H51	-1.0750	3.2456	1.6265 H
52 H52	-2.4620	2.1755	1.2578 H
53 C53	3.7306	3.4988	0.1851 C
54 H54	2.7161	3.6857	0.5856 H
55 O55	4.0761	2.3509	-0.1165 O
56 C56	4.6055	4.7134	0.0494 C
57 H57	4.7307	5.1995	1.0262 H
58 H58	5.5832	4.4374	-0.3513 H
59 H59	4.1298	5.4494	-0.6122 H
60 C60	4.3164	3.4646	-0.0679 C
61 H61	4.8927	4.0625	0.6634 H
62 O62	4.1353	2.2570	0.1244 O
63 C63	3.8002	4.2227	-1.2587 C
64 H64	4.6352	4.6807	-1.8056 H
65 H65	3.2460	3.5577	-1.9244 H
66 H66	3.1485	5.0433	-0.9303 H
67 C67	-2.7753	2.9679	-2.9260 C
68 H68	-2.8935	1.9604	-3.3683 H
69 O69	-2.4431	3.9222	-3.6379 O
70 C70	-3.0437	3.0611	-1.4500 C
71 H71	-2.3713	2.3887	-0.9008 H
72 H72	-2.9042	4.0861	-1.1001 H
73 H73	-4.0684	2.7326	-1.2312 H
74 C74	-1.7730	2.1981	2.7472 C
75 H75	-0.8801	1.9988	2.1247 H
76 O76	-1.9222	1.6088	3.8235 O
77 C77	-2.7395	3.2040	2.1875 C
78 H78	-3.1011	2.8737	1.2045 H
79 H79	-3.5862	3.3381	2.8640 H
80 H80	-2.2348	4.1668	2.0324 H
81 C81	-0.5723	4.3788	-1.5603 C
82 H82	0.0735	3.6627	-2.1031 H
83 O83	-0.9038	5.4428	-2.0950 O
84 C84	-0.9875	3.9558	-0.1790 C
85 H85	-0.1008	3.7856	0.4462 H
86 H86	-1.6198	4.7185	0.2804 H
87 H87	-1.5315	3.0030	-0.2235 H
88 C88	4.6792	2.7374	1.7465 C
89 H89	4.4973	2.5022	2.8124 H
90 O90	4.0450	2.1473	0.8647 O
91 C91	5.7192	3.7906	1.4856 C
92 H92	6.6824	3.4848	1.9155 H
93 H93	5.8329	3.9582	0.4125 H
94 H94	5.4366	4.7306	1.9780 H
95 C95	0.2850	3.6064	-2.4988 C
96 H96	0.1649	3.5068	-1.4033 H
97 O97	1.3966	3.4518	-3.0170 O
98 C98	-0.9699	3.9314	-3.2594 C
99 H99	-1.3976	4.8756	-2.8965 H
100 H100	-0.7595	4.0106	-4.3281 H
101 H101	-1.7268	3.1544	-3.0888 H
102 C102	-3.2054	3.4604	-1.3378 C
103 H103	-4.1391	2.9721	-0.9995 H
104 O104	-3.0717	3.7888	-2.5220 O
105 C105	-2.1665	3.6758	-0.2732 C
106 H106	-1.8815	2.7150	0.1760 H
107 H107	-1.2831	4.1609	-0.6937 H
108 H108	-2.5774	4.2943	0.5357 H
109 C109	2.9536	4.2127	0.7929 C
110 H110	2.0181	4.6236	0.3681 H
111 O111	3.3593	3.1003	0.4378 O
112 C112	3.6499	5.0921	1.7934 C
113 H113	2.9811	5.3062	2.6377 H
114 H114	4.5593	4.6101	2.1584 H
115 H115	3.9021	6.0580	1.3360 H
116 C116	0.5326	3.1084	3.0192 C
117 H117	-0.3549	3.2447	2.3724 H
118 O118	1.4066	2.2915	2.7081 O
119 C119	0.5725	3.9685	4.2511 C
120 H120	-0.3112	3.7766	4.8743 H
121 H121	1.4784	3.7692	4.8274 H
122 H122	0.5387	5.0300	3.9718 H
123 C123	3.5144	3.3729	0.9075 C
124 H124	4.3272	3.1601	0.1873 H
125 O125	3.1809	2.5182	1.7358 O
126 C126	2.8855	4.7329	0.7887 C
127 H127	2.4664	4.8685	-0.2173 H
128 H128	2.0973	4.8561	1.5345 H
129 H129	3.6460	5.5136	0.9230 H
130 C130	-1.1392	4.5324	0.9189 C
131 H131	-0.7904	5.0898	0.0288 H
132 O132	-0.6734	4.7915	2.0342 O
133 C133	-2.1818	3.4822	0.6560 C
134 H134	-1.7989	2.7402	-0.0573 H
135 H135	-2.4664	2.9849	1.5857 H
136 H136	-3.0682	3.9374	0.1945 H
137 C137	-0.3915	2.1068	4.5032 C
138 H138	-0.5765	2.6334	5.4588 H
139 O139	-0.5091	0.8779	4.4400 O
140 C140	-0.0030	2.9844	3.3465 C
141 H141	0.9113	3.5432	3.5870 H
142 H142	0.1591	2.3841	2.4488 H
143 H143	-0.7882	3.7282	3.1565 H
144 C144	-4.5250	-3.0292	1.4401 C
145 H145	-4.9647	-2.2322	2.0695 H
146 O146	-4.4025	-4.1751	1.8871 O
147 C147	-4.1112	-2.6067	0.0583 C
148 H148	-3.3701	-1.7985	0.1166 H
149 H149	-3.6900	-3.4521	-0.4899 H
150 H150	-4.9750	-2.2058	-0.4885 H
151 C151	-5.0625	-0.6272	1.9003 C
152 H152	-4.9776	0.4749	1.9522 H
153 O153	-5.3199	-1.2776	2.9195 O
154 C154	-4.8459	-1.2287	0.5400 C
155 H155	-3.8474	-0.9659	0.1657 H
156 H156	-4.9481	-2.3151	0.5817 H
157 H157	-5.5708	-0.8169	-0.1747 H
158 C158	4.4555	2.1950	3.6246 C
159 H159	5.5025	1.9197	3.3956 H
160 O160	3.5372	1.4089	3.3661 O
161 C161	4.2652	3.5489	4.2490 C
162 H162	4.6648	4.3293	3.5876 H
163 H163	3.2065	3.7364	4.4401 H
164 H164	4.8272	3.6129	5.1902 H
165 C165	-2.7913	2.2533	-2.5927 C
166 H166	-2.5114	1.2916	-2.1224 H
167 O167	-2.3471	2.5506	-3.7073 O
168 C168	-3.7173	3.1211	-1.7874 C
169 H169	-3.2626	3.3592	-0.8165 H
170 H170	-3.9395	4.0452	-2.3251 H
171 H171	-4.6510	2.5830	-1.5766 H
172 C172	2.1557	3.8243	-2.4333 C
173 H173	1.3453	4.0201	-1.7056 H
174 O174	2.7586	2.7453	-2.4140 O
175 C175	2.4398	4.9399	-3.3997 C
176 H176	2.7130	5.8524	-2.8532 H
177 H177	3.2496	4.6616	-4.0775 H
178 H178	1.5378	5.1759	-3.9796 H
179 C179	-3.9559	2.9290	1.6384 C
180 H180	-4.6034	3.1048	0.7584 H
181 O181	-4.4478	2.5298	2.6999 O
182 C182	-2.4937	3.2080	1.4308 C
183 H183	-2.3480	4.2538	1.1291 H
184 H184	-1.9327	3.0084	2.3462 H
185 H185	-2.1026	2.5855	0.6151 H
186 C186	-2.1859	3.0977	3.2429 C
187 H187	-1.8201	2.2004	3.7774 H
188 O188	-2.9967	3.8557	3.7870 O
189 C189	-1.6307	3.2973	1.8605 C
190 H190	-1.8667	2.4297	1.2299 H
191 H191	-2.0437	4.2021	1.4096 H
192 H192	-0.5358	3.3715	1.9004 H
193 C193	7.3023	-1.9852	2.7560 C
194 H194	7.7460	-1.4472	3.6153 H
195 O195	6.1383	-1.7508	2.4122 O
196 C196	8.2048	-2.9790	2.0801 C
197 H197	8.5343	-3.7403	2.7998 H
198 H198	7.6877	-3.4604	1.2474 H
199 H199	9.1100	-2.4778	1.7123 H
200 C200	0.1136	4.5720	1.2061 C
201 H201	0.7407	3.8851	0.6065 H
202 O202	0.5682	5.0891	2.2327 O
203 C203	-1.2747	4.8050	0.6796 C
204 H204	-1.8174	3.8526	0.6111 H
205 H205	-1.8199	5.4921	1.3301 H
206 H206	-1.2288	5.2173	-0.3371 H
207 C207	1.9629	-6.6159	2.2451 C
208 H208	0.9576	-7.0644	2.3589 H
209 O209	2.0884	-5.3890	2.1624 O
210 C210	3.1049	-7.5922	2.2026 C
211 H211	2.9706	-8.2943	1.3690 H
212 H212	4.0545	-7.0650	2.0892 H
213 H213	3.1232	-8.1920	3.1223 H
214 C214	1.4521	-5.9853	-1.4602 C
215 H215	0.6232	-6.5444	-1.9344 H
216 O216	1.2125	-4.9855	-0.7740 O
217 C217	2.8292	-6.5302	-1.7171 C
218 H218	3.0319	-6.5505	-2.7962 H
219 H219	3.5819	-5.9199	-1.2136 H
220 H220	2.8971	-7.5672	-1.3624 H
221 C221	-0.6861	-3.9734	4.4600 C
222 H222	-0.9381	-2.9566	4.8169 H
223 O223	0.3987	-4.1847	3.9064 O
224 C224	-1.7364	-5.0213	4.7005 C
225 H225	-2.6763	-4.7333	4.2109 H
226 H226	-1.4051	-5.9893	4.3186 H
227 H227	-1.9504	-5.1019	5.7746 H
228 C228	-3.8624	-2.0655	0.5192 C
229 H229	-3.3458	-1.3730	1.2107 H
230 O230	-3.2159	-2.9128	-0.1070 O
231 C231	-5.3514	-1.8868	0.4187 C
232 H232	-5.5878	-0.8669	0.0872 H
233 H233	-5.7766	-2.6084	-0.2821 H
234 H234	-5.8145	-2.0144	1.4062 H
235 C235	6.1232	2.3679	1.9752 C
236 H236	6.2921	2.5906	0.9045 H
237 O237	5.2750	1.5327	2.3082 O
238 C238	6.9809	3.1394	2.9387 C
239 H239	6.8212	4.2178	2.8062 H
240 H240	6.7483	2.8576	3.9678 H
241 H241	8.0429	2.9489	2.7348 H
242 C242	-0.9910	0.8899	5.0671 C
243 H243	-1.8785	1.0262	4.4203 H
244 O244	-0.1170	0.0730	4.7560 O
245 C245	-0.9512	1.7500	6.2990 C
246 H246	-1.8348	1.5581	6.9223 H
247 H247	-0.0452	1.5507	6.8753 H
248 H248	-0.9849	2.8114	6.0197 H
249 C249	-1.7824	-5.7623	0.2098 C
250 H250	-2.4894	-5.0172	-0.2022 H
251 O251	-0.6528	-5.4120	0.5693 O
252 C252	-2.3006	-7.1710	0.2869 C
253 H253	-2.5902	-7.5220	-0.7126 H
254 H254	-1.5407	-7.8356	0.7035 H
255 H255	-3.2043	-7.2074	0.9097 H
256 C256	1.4517	-4.1468	6.0996 C
257 H257	0.7716	-3.3202	6.3804 H
258 O258	1.9339	-4.1934	4.9624 O
259 C259	1.7204	-5.1575	7.1792 C
260 H260	0.7787	-5.6154	7.5104 H
261 H261	2.3981	-5.9332	6.8165 H
262 H262	2.1592	-4.6648	8.0569 H
263 C263	1.3374	-4.7638	-2.3919 C
264 H264	0.3156	-4.4522	-2.6806 H
265 O265	1.8737	-4.2776	-1.3898 O
266 C266	1.9797	-5.7839	-3.2896 C
267 H267	2.0398	-5.3988	-4.3164 H
268 H268	2.9811	-6.0318	-2.9314 H
269 H269	1.3656	-6.6934	-3.3277 H
270 C270	4.4265	-0.7048	5.6043 C
271 H271	3.5941	-0.0207	5.8569 H
272 O272	4.3280	-1.4707	4.6390 O
273 C273	5.6289	-0.6185	6.5020 C
274 H274	5.3413	-0.8329	7.5399 H
275 H275	6.3973	-1.3248	6.1807 H
276 H276	6.0365	0.4010	6.4902 H
277 C277	3.6261	1.2626	4.7628 C
278 H278	4.3183	2.0467	4.4014 H
279 O279	3.7440	0.0992	4.3619 O
280 C280	2.5805	1.7237	5.7391 C
281 H281	1.9640	2.5125	5.2876 H
282 H282	1.9448	0.8887	6.0411 H
283 H283	3.0584	2.1629	6.6247 H
284 C284	6.3173	-3.5339	2.4333 C
285 H285	5.5314	-4.3086	2.3511 H
286 O286	6.0574	-2.3562	2.1619 O
287 C287	7.6644	-4.0252	2.8840 C
288 H288	8.0389	-4.7897	2.1902 H
289 H289	8.3750	-3.1977	2.9368 H
290 H290	7.5816	-4.5041	3.8686 H
291 C291	2.8325	1.4677	5.6245 C
292 H292	1.9050	2.0691	5.5721 H
293 O293	3.0705	0.6189	4.7580 O
294 C294	3.7310	1.7662	6.7919 C
295 H295	3.1910	1.6059	7.7346 H
296 H296	4.6180	1.1298	6.7641 H
297 H297	4.0333	2.8217	6.7754 H
298 C298	6.0140	-0.0193	-5.8244 C
299 H299	5.4278	0.4567	-6.6333 H
300 O300	5.4483	-0.7254	-4.9822 O
301 C301	7.4906	0.2605	-5.8460 C
302 H302	7.6711	1.3417	-5.7793 H
303 H303	7.9879	-0.2465	-5.0164 H
304 H304	7.9247	-0.0751	-6.7972 H
305 C305	4.5097	-6.1741	1.0799 C
306 H306	3.8841	-6.7824	0.3993 H
307 O307	4.1219	-5.0595	1.4477 O
308 C308	5.8114	-6.8009	1.4941 C
309 H309	6.4224	-7.0223	0.6088 H
310 H310	6.3611	-6.1344	2.1621 H
311 H311	5.6259	-7.7584	1.9987 H
312 C312	4.2739	-3.0975	-5.6962 C
313 H313	3.2944	-3.0593	-6.2097 H
314 O314	4.6289	-2.1635	-4.9684 O
315 C315	5.0914	-4.3319	-5.9550 C
316 H316	5.2886	-4.4355	-7.0304 H
317 H317	6.0372	-4.2850	-5.4112 H
318 H318	4.5328	-5.2260	-5.6478 H
319 C319	-5.2855	-1.3920	0.9533 C
320 H320	-5.3128	-0.9133	1.9506 H
321 O321	-6.1606	-1.1356	0.1187 O
322 C322	-4.1400	-2.3369	0.7213 C
323 H323	-4.1607	-3.1451	1.4646 H
324 H324	-4.1918	-2.7611	-0.2837 H
325 H325	-3.1847	-1.8113	0.8513 H
326 C326	2.6158	-4.5985	-4.2624 C
327 H327	3.3341	-5.4296	-4.3963 H
328 O328	2.3736	-4.1651	-3.1303 O
329 C329	1.9933	-4.0727	-5.5253 C
330 H330	1.4585	-4.8780	-6.0464 H
331 H331	1.3014	-3.2583	-5.3002 H
332 H332	2.7735	-3.7153	-6.2105 H
333 C333	2.7538	-5.6782	1.8524 C
334 H334	3.3739	-4.8719	2.2883 H
335 O335	2.1846	-5.5052	0.7689 O
336 C336	2.6734	-6.9413	2.6631 C
337 H337	2.2647	-6.7252	3.6593 H
338 H338	2.0442	-7.6788	2.1603 H
339 H339	3.6784	-7.3563	2.8161 H
340 C340	4.2589	-0.3210	-6.2282 C
341 H341	3.2371	-0.0095	-6.5169 H
342 O342	4.7952	0.1652	-5.2262 O
343 C343	4.9012	-1.3411	-7.1259 C
344 H344	4.9613	-0.9560	-8.1527 H
345 H345	5.9026	-1.5891	-6.7677 H
346 H346	4.2871	-2.2506	-7.1640 H
347 C347	-0.6055	4.5947	3.1215 C
348 H348	0.2378	4.9122	3.7639 H
349 O349	-1.5968	5.3223	2.9957 O
350 C350	-0.4392	3.2605	2.4497 C
351 H351	-0.2956	2.4739	3.2026 H
352 H352	-1.3141	3.0284	1.8388 H
353 H353	0.4603	3.2643	1.8199 H
354 C354	-3.0609	-2.4831	-4.0913 C
355 H355	-3.9251	-1.8546	-3.8035 H
356 O356	-3.2258	-3.4664	-4.8220 O
357 C357	-1.7332	-2.0491	-3.5366 C
358 H358	-1.7687	-2.0356	-2.4390 H
359 H359	-0.9409	-2.7227	-3.8700 H
360 H360	-1.5062	-1.0242	-3.8588 H
361 C361	8.0055	-0.5589	-3.0288 C
362 H362	7.5179	-0.4216	-4.0127 H
363 O363	7.6276	-1.4587	-2.2701 O
364 C364	9.1159	0.4051	-2.7179 C
365 H365	8.7402	1.4365	-2.7486 H
366 H366	9.5378	0.1973	-1.7323 H
367 H367	9.9037	0.3320	-3.4795 H
368 C368	6.2857	-5.2484	0.7465 C
369 H369	6.2437	-6.2366	1.2428 H
370 O370	6.8831	-4.3095	1.2847 O
371 C371	5.5821	-5.1605	-0.5788 C
372 H372	4.5204	-5.4150	-0.4602 H
373 H373	5.6744	-4.1550	-0.9946 H
374 H374	6.0065	-5.8906	-1.2807 H
@<TRIPOS>BOND
1 1 2 2
2 1 3 1
3 1 16 1
4 3 4 1
5 5 9 1
6 5 15 1
7 5 16 1
8 6 7 1
9 6 8 1
10 6 9 2
11 9 10 1
12 10 11 1
13 10 12 1
14 10 13 1
15 14 15 1
16 14 17 1
17 14 18 1
18 14 19 1
19 15 20 1
20 15 21 1
21 16 17 1
22 16 22 1
23 17 23 1
24 17 24 1
25 25 26 1
26 25 27 2
27 25 28 1
28 28 29 1
29 28 30 1
30 28 31 1
31 32 33 1
32 32 34 2
33 32 35 1
34 35 36 1
35 35 37 1
36 35 38 1
37 39 40 1
38 39 41 2
39 39 42 1
40 42 43 1
41 42 44 1
42 42 45 1
43 46 47 1
44 46 48 2
45 46 49 1
46 49 50 1
47 49 51 1
48 49 52 1
49 53 54 1
50 53 55 2
51 53 56 1
52 56 57 1
53 56 58 1
54 56 59 1
55 60 61 1
56 60 62 2
57 60 63 1
58 63 64 1
59 63 65 1
60 63 66 1
61 67 68 1
62 67 69 2
63 67 70 1
64 70 71 1
65 70 72 1
66 70 73 1
67 74 75 1
68 74 76 2
69 74 77 1
70 77 78 1
71 77 79 1
72 77 80 1
73 81 82 1
74 81 83 2
75 81 84 1
76 84 85 1
77 84 86 1
78 84 87 1
79 88 89 1
80 88 90 2
81 88 91 1
82 91 92 1
83 91 93 1
84 91 94 1
85 95 96 1
86 95 97 2
87 95 98 1
88 98 99 1
89 98 100 1
90 98 101 1
91 102 103 1
92 102 104 2
93 102 105 1
94 105 106 1
95 105 107 1
96 105 108 1
97 109 110 1
98 109 111 2
99 109 112 1
100 112 113 1
101 112 114 1
102 112 115 1
103 116 117 1
104 116 118 2
105 116 119 1
106 119 120 1
107 119 121 1
108 119 122 1
109 123 124 1
110 123 125 2
111 123 126 1
112 126 127 1
113 126 128 1
114 126 129 1
115 130 131 1
116 130 132 2
117 130 133 1
118 133 134 1
119 133 135 1
120 133 136 1
121 137 138 1
122 137 139 2
123 137 140 1
124 140 141 1
125 140 142 1
126 140 143 1
127 144 145 1
128 144 146 2
129 144 147 1
130 147 148 1
131 147 149 1
132 147 150 1
133 151 152 1
134 151 153 2
135 151 154 1
136 154 155 1
137 154 156 1
138 154 157 1
139 158 159 1
140 158 160 2
141 158 161 1
142 161 162 1
143 161 163 1
144 161 164 1
145 165 166 1
146 165 167 2
147 165 168 1
148 168 169 1
149 168 170 1
150 168 171 1
151 172 173 1
152 172 174 2
153 172 175 1
154 175 176 1
155 175 177 1
156 175 178 1
157 179 180 1
158 179 181 2
159 179 182 1
160 182 183 1
161 182 184 1
162 182 185 1
163 186 187 1
164 186 188 2
165 186 189 1
166 189 190 1
167 189 191 1
168 189 192 1
169 193 194 1
170 193 195 2
171 193 196 1
172 196 197 1
173 196 198 1
174 196 199 1
175 200 201 1
176 200 202 2
177 200 203 1
178 203 204 1
179 203 205 1
180 203 206 1
181 207 208 1
182 207 209 2
183 207 210 1
184 210 211 1
185 210 212 1
186 210 213 1
187 214 215 1
188 214 216 2
189 214 217 1
190 217 218 1
191 217 219 1
192 217 220 1
193 221 222 1
194 221 223 2
195 221 224 1
196 224 225 1
197 224 226 1
198 224 227 1
199 228 229 1
200 228 230 2
201 228 231 1
202 231 232 1
203 231 233 1
204 231 234 1
205 235 236 1
206 235 237 2
207 235 238 1
208 238 239 1
209 238 240 1
210 238 241 1
211 242 243 1
212 242 244 2
213 242 245 1
214 245 246 1
215 245 247 1
216 245 248 1
217 249 250 1
218 249 251 2
219 249 252 1
220 252 253 1
221 252 254 1
222 252 255 1
223 256 257 1
224 256 258 2
225 256 259 1
226 259 260 1
227 259 261 1
228 259 262 1
229 263 264 1
230 263 265 2
231 263 266 1
232 266 267 1
233 266 268 1
234 266 269 1
235 270 271 1
236 270 272 2
237 270 273 1
238 273 274 1
239 273 275 1
240 273 276 1
241 277 278 1
242 277 279 2
243 277 280 1
244 280 281 1
245 280 282 1
246 280 283 1
247 284 285 1
248 284 286 2
249 284 287 1
250 287 288 1
251 287 289 1
252 287 290 1
253 291 292 1
254 291 293 2
255 291 294 1
256 294 295 1
257 294 296 1
258 294 297 1
259 298 299 1
260 298 300 2
261 298 301 1
262 301 302 1
263 301 303 1
264 301 304 1
265 305 306 1
266 305 307 2
267 305 308 1
268 308 309 1
269 308 310 1
270 308 311 1
271 312 313 1
272 312 314 2
273 312 315 1
274 315 316 1
275 315 317 1
276 315 318 1
277 319 320 1
278 319 321 2
279 319 322 1
280 322 323 1
281 322 324 1
282 322 325 1
283 326 327 1
284 326 328 2
285 326 329 1
286 329 330 1
287 329 331 1
288 329 332 1
289 333 334 1
290 333 335 2
291 333 336 1
292 336 337 1
293 336 338 1
294 336 339 1
295 340 341 1
296 340 342 2
297 340 343 1
298 343 344 1
299 343 345 1
300 343 346 1
301 347 348 1
302 347 349 2
303 347 350 1
304 350 351 1
305 350 352 1
306 350 353 1
307 354 355 1
308 354 356 2
309 354 357 1
310 357 358 1
311 357 359 1
312 357 360 1
313 361 362 1
314 361 363 2
315 361 364 1
316 364 365 1
317 364 366 1
318 364 367 1
319 368 369 1
320 368 370 2
321 368 371 1
322 371 372 1
323 371 373 1
324 371 374 1
