@<TRIPOS>MOLECULE
Molecule Name
374 324
SMALL
NO_CHARGES

@<TRIPOS>ATOM
1 C1	0.0000	0.0000	0.0000 C
2 O2	-1.2277	0.0000	0.0000 O
3 O3	0.7282	1.1653	0.0000 O
4 H4	1.6891	0.9384	-0.0528 H
5 N5	2.2374	-1.0721	-0.3625 N
6 C6	3.8790	-0.9407	-2.1454 C
7 H7	4.7241	-1.0195	-1.4734 H
8 H8	4.1074	-0.8273	-3.1973 H
9 C9	2.5932	-0.9425	-1.7310 C
10 C10	1.4550	-0.7647	-2.7128 C
11 H11	0.8870	0.1533	-2.5204 H
12 H12	1.8525	-0.7002	-3.7276 H
13 H13	0.7474	-1.6019	-2.6833 H
14 C14	2.3493	-2.4254	1.6128 C
15 C15	3.2143	-1.6524	0.5997 C
16 C16	0.8410	-1.2749	0.0897 C
17 C17	0.9956	-1.6932	1.5790 C
18 H18	2.2252	-3.4639	1.2835 H
19 H19	2.7911	-2.4430	2.6133 H
20 H20	3.9089	-2.3108	0.0665 H
21 H21	3.8053	-0.8621	1.0809 H
22 H22	0.3197	-2.0567	-0.4748 H
23 H23	1.0306	-0.7982	2.2122 H
24 H24	0.1530	-2.3044	1.9090 H
25 C25	-2.6533	-3.8381	0.3169 C
26 H26	-3.2297	-4.3028	-0.5054 H
27 O27	-1.4433	-4.0641	0.4305 O
28 C28	-3.4424	-2.9496	1.2374 C
29 H29	-4.2608	-3.5172	1.7001 H
30 H30	-2.7972	-2.5356	2.0151 H
31 H31	-3.9055	-2.1326	0.6683 H
32 C32	-3.3803	-2.7921	1.2179 C
33 H33	-3.9685	-2.8574	2.1530 H
34 O34	-2.3798	-3.5016	1.0644 O
35 C35	-3.8883	-1.8074	0.2024 C
36 H36	-3.9155	-0.7985	0.6355 H
37 H37	-3.2508	-1.8092	-0.6842 H
38 H38	-4.9187	-2.0573	-0.0833 H
39 C39	4.0267	2.7837	1.9300 C
40 H40	3.0891	3.3223	2.1651 H
41 O41	4.0637	1.9871	0.9855 O
42 C42	5.1936	3.0972	2.8240 C
43 H43	4.9429	2.8643	3.8675 H
44 H44	6.0723	2.5240	2.5209 H
45 H45	5.4215	4.1706	2.7848 H
46 C46	-2.0058	3.8882	-2.0492 C
47 H47	-0.9071	3.8264	-1.9317 H
48 O48	-2.4933	4.3226	-3.0988 O
49 C49	-2.8092	3.4169	-0.8696 C
50 H50	-2.5487	4.0018	0.0226 H
51 H51	-3.8780	3.5128	-1.0722 H
52 H52	-2.5690	2.3696	-0.6432 H
53 C53	-1.2629	3.2254	2.7906 C
54 H54	-0.4153	3.8017	2.3734 H
55 O55	-1.2145	2.8051	3.9521 O
56 C56	-2.4214	3.0126	1.8570 C
57 H57	-2.0869	2.4833	0.9547 H
58 H58	-3.2085	2.4375	2.3493 H
59 H59	-2.8227	3.9798	1.5266 H
60 C60	4.0298	2.2742	3.0318 C
61 H61	5.1356	2.2984	2.9950 H
62 O62	3.4300	1.1974	2.9385 O
63 C63	3.3596	3.6092	3.1978 C
64 H64	3.6386	4.2771	2.3719 H
65 H65	2.2742	3.4914	3.2241 H
66 H66	3.7011	4.0906	4.1238 H
67 C67	-1.7061	3.5617	-2.0014 C
68 H68	-1.5283	2.5409	-2.3899 H
69 O69	-1.6602	4.5323	-2.7655 O
70 C70	-1.9944	3.6516	-0.5290 C
71 H71	-1.1587	3.2307	0.0458 H
72 H72	-2.1565	4.6904	-0.2339 H
73 H73	-2.8821	3.0546	-0.2810 H
74 C74	3.1065	1.4941	4.1658 C
75 H75	3.6060	1.0383	5.0417 H
76 O76	3.3784	1.1038	3.0248 O
77 C77	2.1151	2.5794	4.4795 C
78 H78	2.6076	3.3936	5.0277 H
79 H79	1.6728	2.9703	3.5608 H
80 H80	1.3237	2.1902	5.1338 H
81 C81	3.7695	3.2691	-0.4071 C
82 H82	3.2212	3.2680	-1.3683 H
83 O83	4.1782	2.2064	0.0744 O
84 C84	3.9606	4.6186	0.2263 C
85 H85	2.9862	5.0898	0.4123 H
86 H86	4.5087	4.5257	1.1662 H
87 H87	4.5082	5.2820	-0.4563 H
88 C88	1.2860	1.9939	4.3519 C
89 H89	0.6953	2.3849	5.2021 H
90 O90	1.8916	0.9216	4.4592 O
91 C91	1.2823	2.8483	3.1154 C
92 H92	1.6746	3.8478	3.3459 H
93 H93	1.8872	2.3884	2.3311 H
94 H94	0.2542	2.9868	2.7552 H
95 C95	-4.2468	1.1200	2.9541 C
96 H96	-4.7002	0.2001	2.5384 H
97 O97	-4.1353	1.2577	4.1775 O
98 C98	-3.8015	2.1360	1.9400 C
99 H99	-4.6525	2.4494	1.3207 H
100 H100	-3.3682	3.0070	2.4363 H
101 H101	-3.0616	1.6922	1.2607 H
102 C102	-3.9245	0.3492	-2.6763 C
103 H103	-3.8917	-0.6992	-2.3235 H
104 O104	-3.6811	0.6129	-3.8592 O
105 C105	-4.2758	1.3716	-1.6320 C
106 H106	-3.5516	1.3331	-0.8073 H
107 H107	-4.2851	2.3736	-2.0660 H
108 H108	-5.2601	1.1472	-1.2001 H
109 C109	-3.8412	-0.9905	1.9120 C
110 H110	-3.8154	-0.5896	0.8809 H
111 O111	-3.2708	-2.0545	2.1777 O
112 C112	-4.5984	-0.1594	2.9095 C
113 H113	-5.6409	-0.0383	2.5862 H
114 H114	-4.5720	-0.6277	3.8957 H
115 H115	-4.1656	0.8481	2.9676 H
116 C116	-0.4328	2.9499	-3.0190 C
117 H117	-0.2353	3.2259	-1.9657 H
118 O118	0.5021	2.6286	-3.7612 O
119 C119	-1.8745	3.0005	-3.4407 C
120 H120	-2.2757	4.0122	-3.2935 H
121 H121	-1.9763	2.7143	-4.4897 H
122 H122	-2.4750	2.3273	-2.8145 H
123 C123	0.9048	4.4890	-0.8515 C
124 H124	0.5312	5.0700	-1.7160 H
125 O125	2.0579	4.0437	-0.8557 O
126 C126	-0.0748	4.3019	0.2730 C
127 H127	-0.9755	3.7906	-0.0920 H
128 H128	0.3759	3.7203	1.0799 H
129 H129	-0.3986	5.2780	0.6580 H
130 C130	-0.1516	-5.0853	-2.6207 C
131 H131	0.0249	-4.4990	-3.5425 H
132 O132	0.2168	-4.6448	-1.5261 O
133 C133	-0.8474	-6.4031	-2.8165 C
134 H134	-0.2651	-7.0403	-3.4954 H
135 H135	-0.9798	-6.9114	-1.8591 H
136 H136	-1.8259	-6.2468	-3.2898 H
137 C137	-3.3058	4.2754	-1.1032 C
138 H138	-2.6868	4.3947	-2.0127 H
139 O139	-4.4618	4.7126	-1.0787 O
140 C140	-2.6405	3.5662	0.0428 C
141 H141	-1.7307	4.1035	0.3422 H
142 H142	-3.3207	3.4934	0.8940 H
143 H143	-2.3271	2.5602	-0.2664 H
144 C144	-0.6789	-4.8549	-1.6274 C
145 H145	-1.4274	-4.1138	-1.2880 H
146 O146	0.5116	-4.7164	-1.3249 O
147 C147	-1.2206	-5.9898	-2.4505 C
148 H148	-1.7174	-5.6009	-3.3494 H
149 H149	-0.4165	-6.6695	-2.7405 H
150 H150	-1.9814	-6.5398	-1.8809 H
151 C151	-2.0836	-3.5753	-1.8730 C
152 H152	-2.7746	-2.8824	-1.3562 H
153 O153	-1.2658	-4.2351	-1.2221 O
154 C154	-2.2270	-3.6349	-3.3680 C
155 H155	-2.0673	-2.6391	-3.8027 H
156 H156	-1.5097	-4.3403	-3.7930 H
157 H157	-3.2473	-3.9385	-3.6377 H
158 C158	-3.3577	3.8679	-1.3988 C
159 H159	-4.4394	3.7982	-1.1759 H
160 O160	-2.9774	4.2661	-2.5055 O
161 C161	-2.4401	3.4529	-0.2831 C
162 H162	-2.6420	2.4124	0.0045 H
163 H163	-1.3966	3.5533	-0.5890 H
164 H164	-2.6248	4.0692	0.6068 H
165 C165	-2.2125	4.3435	1.7797 C
166 H166	-2.0789	5.2141	1.1098 H
167 O167	-2.2258	4.5012	3.0057 O
168 C168	-2.3687	3.0165	1.0914 C
169 H169	-1.4891	2.8090	0.4674 H
170 H170	-2.4948	2.2177	1.8253 H
171 H171	-3.2362	3.0399	0.4186 H
172 C172	7.5903	0.1711	1.0726 C
173 H173	7.5595	1.0315	1.7678 H
174 O174	6.5416	-0.3858	0.7289 O
175 C175	8.9607	-0.2361	0.6086 C
176 H176	9.5889	-0.4976	1.4706 H
177 H177	8.8967	-1.0885	-0.0710 H
178 H178	9.4528	0.6043	0.1013 H
179 C179	-4.6539	0.7853	2.9710 C
180 H180	-3.9875	1.3031	3.6867 H
181 O181	-5.4211	-0.0993	3.3671 O
182 C182	-4.5432	1.2375	1.5418 C
183 H183	-3.5154	1.0993	1.1807 H
184 H184	-5.2334	0.6760	0.9087 H
185 H185	-4.7637	2.3106	1.4672 H
186 C186	-2.6824	-2.6463	3.6119 C
187 H187	-3.1779	-2.7242	2.6255 H
188 O188	-1.6356	-3.2664	3.8304 O
189 C189	-3.3693	-1.7586	4.6116 C
190 H190	-4.3918	-2.1154	4.7935 H
191 H191	-2.8141	-1.7406	5.5518 H
192 H192	-3.4556	-0.7386	4.2142 H
193 C193	0.0284	-2.1900	5.5288 C
194 H194	0.5373	-2.1235	6.5091 H
195 O195	0.5156	-2.8755	4.6228 O
196 C196	-1.2485	-1.4062	5.4092 C
197 H197	-1.0574	-0.3417	5.5999 H
198 H198	-1.6807	-1.5290	4.4138 H
199 H199	-1.9688	-1.7398	6.1680 H
200 C200	-2.5954	4.5701	0.8524 C
201 H201	-2.6522	5.0433	-0.1463 H
202 O202	-3.4089	4.8774	1.7309 O
203 C203	-1.4897	3.5677	1.0304 C
204 H204	-0.5167	4.0417	0.8442 H
205 H205	-1.5087	3.1530	2.0405 H
206 H206	-1.5930	2.7573	0.2967 H
207 C207	-2.6613	-3.3054	1.3729 C
208 H208	-2.8943	-2.2769	1.7085 H
209 O209	-1.9217	-3.4870	0.3993 O
210 C210	-3.2980	-4.4062	2.1741 C
211 H211	-4.3912	-4.3027	2.1557 H
212 H212	-3.0150	-5.3824	1.7748 H
213 H213	-2.9906	-4.3342	3.2258 H
214 C214	7.6916	-1.1730	1.0054 C
215 H215	7.8741	-2.2571	1.1321 H
216 O216	6.5710	-0.7673	0.6773 O
217 C217	8.8773	-0.2845	1.2577 C
218 H218	9.7005	-0.5524	0.5819 H
219 H219	8.6079	0.7636	1.1106 H
220 H220	9.2474	-0.4302	2.2812 H
221 C221	7.4277	-3.2433	-0.1028 C
222 H222	6.9010	-4.2164	-0.0845 H
223 O223	6.7892	-2.1908	0.0097 O
224 C224	8.9196	-3.3192	-0.2692 C
225 H225	9.1693	-3.8367	-1.2050 H
226 H226	9.3548	-2.3176	-0.2761 H
227 H227	9.3609	-3.9078	0.5460 H
228 C228	6.8552	-1.2422	2.5797 C
229 H229	6.6549	-0.1617	2.4487 H
230 O230	5.9468	-2.0648	2.4184 O
231 C231	8.2670	-1.5969	2.9539 C
232 H232	8.5437	-1.1029	3.8949 H
233 H233	8.3737	-2.6783	3.0618 H
234 H234	8.9638	-1.2318	2.1877 H
235 C235	4.9494	2.2684	1.8655 C
236 H236	4.6641	1.7404	2.7952 H
237 O237	4.6614	1.7848	0.7649 O
238 C238	5.6840	3.5653	2.0583 C
239 H239	6.6080	3.3949	2.6269 H
240 H240	5.9248	4.0155	1.0930 H
241 H241	5.0729	4.2614	2.6481 H
242 C242	-2.8962	3.1161	-2.7069 C
243 H243	-3.4420	3.5465	-1.8459 H
244 O244	-3.5102	2.7869	-3.7280 O
245 C245	-1.4106	2.9767	-2.5259 C
246 H246	-1.1942	2.3396	-1.6580 H
247 H247	-0.9553	2.5459	-3.4201 H
248 H248	-0.9618	3.9573	-2.3190 H
249 C249	7.3404	-2.3029	1.4673 C
250 H250	7.4263	-2.1289	2.5568 H
251 O251	6.5295	-1.6530	0.7980 O
252 C252	8.2582	-3.3527	0.9064 C
253 H253	8.0762	-4.3165	1.4005 H
254 H254	8.1065	-3.4576	-0.1700 H
255 H255	9.3044	-3.0862	1.1075 H
256 C256	2.5159	-0.8392	-7.2982 C
257 H257	1.4094	-0.8472	-7.3151 H
258 O258	3.1191	-0.8337	-6.2192 O
259 C259	3.1827	-0.8358	-8.6452 C
260 H260	2.8644	0.0429	-9.2219 H
261 H261	4.2690	-0.8281	-8.5339 H
262 H262	2.8768	-1.7200	-9.2201 H
263 C263	3.8162	-2.4282	5.8942 C
264 H264	3.3663	-3.4101	5.6533 H
265 O265	3.8727	-1.5441	5.0321 O
266 C266	4.3270	-2.2789	7.2999 C
267 H267	5.0901	-3.0410	7.5072 H
268 H268	4.7519	-1.2840	7.4486 H
269 H269	3.5119	-2.4432	8.0172 H
270 C270	0.9343	-6.4215	-0.8254 C
271 H271	-0.1393	-6.1807	-0.9430 H
272 O272	1.7422	-5.5297	-0.5425 O
273 C273	1.2991	-7.8649	-1.0321 C
274 H274	1.0065	-8.1876	-2.0402 H
275 H275	2.3729	-8.0110	-0.8971 H
276 H276	0.7485	-8.4986	-0.3242 H
277 C277	5.8760	-2.9650	3.5892 C
278 H278	5.3750	-3.9332	3.3988 H
279 O279	5.6466	-1.9943	2.8590 O
280 C280	6.8156	-2.9434	4.7622 C
281 H281	7.6068	-3.6927	4.6260 H
282 H282	7.2629	-1.9536	4.8755 H
283 H283	6.2785	-3.2132	5.6812 H
284 C284	3.1750	-1.3866	6.3064 C
285 H285	3.5230	-0.3460	6.1628 H
286 O286	2.6422	-1.9964	5.3724 O
287 C287	3.4007	-1.9599	7.6773 C
288 H288	2.8928	-1.3448	8.4321 H
289 H289	3.0289	-2.9854	7.7288 H
290 H290	4.4710	-1.9426	7.9223 H
291 C291	-5.2574	1.9425	-1.8095 C
292 H292	-5.0391	3.0231	-1.9051 H
293 O293	-6.2694	1.4659	-2.3356 O
294 C294	-4.2561	1.1484	-1.0184 C
295 H295	-4.1752	1.5507	0.0003 H
296 H296	-4.5494	0.0974	-0.9758 H
297 H297	-3.2606	1.2358	-1.4735 H
298 C298	6.0123	-4.7686	1.2228 C
299 H299	6.1821	-5.2032	0.2193 H
300 O300	4.8698	-4.4589	1.5788 O
301 C301	7.2422	-4.5990	2.0699 C
302 H302	7.9667	-3.9515	1.5583 H
303 H303	6.9826	-4.1660	3.0383 H
304 H304	7.7345	-5.5691	2.2194 H
305 C305	2.3810	4.6328	-0.4720 C
306 H306	1.3289	4.8772	-0.7128 H
307 O307	2.7798	3.4655	-0.5514 O
308 C308	3.2368	5.7975	-0.0595 C
309 H309	2.8096	6.2846	0.8273 H
310 H310	4.2543	5.4661	0.1582 H
311 H311	3.2570	6.5523	-0.8568 H
312 C312	-2.3960	3.2667	-1.4829 C
313 H313	-2.2001	2.5355	-0.6758 H
314 O314	-1.4574	3.8751	-2.0092 O
315 C315	-3.8404	3.4415	-1.8599 C
316 H316	-4.4222	3.7645	-0.9863 H
317 H317	-3.9403	4.1779	-2.6601 H
318 H318	-4.2642	2.4824	-2.1859 H
319 C319	4.0246	-1.3253	-7.1562 C
320 H320	3.2394	-1.0089	-7.8688 H
321 O321	3.8089	-1.2880	-5.9396 O
322 C322	5.3147	-1.7823	-7.7774 C
323 H323	5.7435	-0.9791	-8.3913 H
324 H324	6.0287	-2.0746	-7.0045 H
325 H325	5.1303	-2.6309	-8.4496 H
326 C326	4.4066	2.6982	-2.2680 C
327 H327	3.8748	2.9631	-3.2016 H
328 O328	3.7674	2.3633	-1.2644 O
329 C329	5.9059	2.7802	-2.3330 C
330 H330	6.2171	3.7986	-2.6015 H
331 H331	6.3459	2.5031	-1.3726 H
332 H332	6.2868	2.1149	-3.1192 H
333 C333	-2.3602	-4.6401	-1.6958 C
334 H334	-3.3953	-4.2980	-1.5059 H
335 O335	-1.4365	-3.8204	-1.7488 O
336 C336	-2.1923	-6.1230	-1.8744 C
337 H337	-2.8054	-6.4739	-2.7152 H
338 H338	-1.1442	-6.3699	-2.0561 H
339 H339	-2.5468	-6.6535	-0.9806 H
340 C340	-5.9245	1.2437	-0.7869 C
341 H341	-6.4574	0.2819	-0.9119 H
342 O342	-6.3816	2.2756	-1.2911 O
343 C343	-4.6547	1.1794	0.0148 C
344 H344	-3.9486	0.4797	-0.4519 H
345 H345	-4.1977	2.1685	0.0871 H
346 H346	-4.8631	0.7945	1.0219 H
347 C347	1.2510	-5.5783	-2.8840 C
348 H348	1.9055	-5.9382	-2.0675 H
349 O349	0.9697	-4.3776	-2.9691 O
350 C350	0.7608	-6.6358	-3.8330 C
351 H351	0.1976	-7.4030	-3.2850 H
352 H352	0.1250	-6.1935	-4.6029 H
353 H353	1.6123	-7.1440	-4.3045 H
354 C354	-3.2168	2.6803	-3.5616 C
355 H355	-3.8888	1.9844	-3.0244 H
356 O356	-3.6538	3.3729	-4.4876 O
357 C357	-1.7925	2.7024	-3.0823 C
358 H358	-1.3503	1.7007	-3.1661 H
359 H359	-1.2037	3.4135	-3.6656 H
360 H360	-1.7559	2.9770	-2.0197 H
361 C361	6.0001	-4.4929	-2.4999 C
362 H362	6.8709	-4.4664	-3.1823 H
363 O363	6.1724	-4.5594	-1.2777 O
364 C364	4.6544	-4.4428	-3.1675 C
365 H365	4.5450	-5.2879	-3.8603 H
366 H366	3.8567	-4.4733	-2.4224 H
367 H367	4.5644	-3.5275	-3.7674 H
368 C368	-0.3772	-3.3198	-5.8386 C
369 H369	0.0738	-4.2583	-5.4638 H
370 O370	-0.1915	-2.2582	-5.2333 O
371 C371	-1.1965	-3.4521	-7.0917 C
372 H372	-2.0192	-4.1618	-6.9318 H
373 H373	-1.6010	-2.4821	-7.3882 H
374 H374	-0.5804	-3.8592	-7.9045 H
@<TRIPOS>BOND
1 1 2 2
2 1 3 1
3 1 16 1
4 3 4 1
5 5 9 1
6 5 15 1
7 5 16 1
8 6 7 1
9 6 8 1
10 6 9 2
11 9 10 1
12 10 11 1
13 10 12 1
14 10 13 1
15 14 15 1
16 14 17 1
17 14 18 1
18 14 19 1
19 15 20 1
20 15 21 1
21 16 17 1
22 16 22 1
23 17 23 1
24 17 24 1
25 25 26 1
26 25 27 2
27 25 28 1
28 28 29 1
29 28 30 1
30 28 31 1
31 32 33 1
32 32 34 2
33 32 35 1
34 35 36 1
35 35 37 1
36 35 38 1
37 39 40 1
38 39 41 2
39 39 42 1
40 42 43 1
41 42 44 1
42 42 45 1
43 46 47 1
44 46 48 2
45 46 49 1
46 49 50 1
47 49 51 1
48 49 52 1
49 53 54 1
50 53 55 2
51 53 56 1
52 56 57 1
53 56 58 1
54 56 59 1
55 60 61 1
56 60 62 2
57 60 63 1
58 63 64 1
59 63 65 1
60 63 66 1
61 67 68 1
62 67 69 2
63 67 70 1
64 70 71 1
65 70 72 1
66 70 73 1
67 74 75 1
68 74 76 2
69 74 77 1
70 77 78 1
71 77 79 1
72 77 80 1
73 81 82 1
74 81 83 2
75 81 84 1
76 84 85 1
77 84 86 1
78 84 87 1
79 88 89 1
80 88 90 2
81 88 91 1
82 91 92 1
83 91 93 1
84 91 94 1
85 95 96 1
86 95 97 2
87 95 98 1
88 98 99 1
89 98 100 1
90 98 101 1
91 102 103 1
92 102 104 2
93 102 105 1
94 105 106 1
95 105 107 1
96 105 108 1
97 109 110 1
98 109 111 2
99 109 112 1
100 112 113 1
101 112 114 1
102 112 115 1
103 116 117 1
104 116 118 2
105 116 119 1
106 119 120 1
107 119 121 1
108 119 122 1
109 123 124 1
110 123 125 2
111 123 126 1
112 126 127 1
113 126 128 1
114 126 129 1
115 130 131 1
116 130 132 2
117 130 133 1
118 133 134 1
119 133 135 1
120 133 136 1
121 137 138 1
122 137 139 2
123 137 140 1
124 140 141 1
125 140 142 1
126 140 143 1
127 144 145 1
128 144 146 2
129 144 147 1
130 147 148 1
131 147 149 1
132 147 150 1
133 151 152 1
134 151 153 2
135 151 154 1
136 154 155 1
137 154 156 1
138 154 157 1
139 158 159 1
140 158 160 2
141 158 161 1
142 161 162 1
143 161 163 1
144 161 164 1
145 165 166 1
146 165 167 2
147 165 168 1
148 168 169 1
149 168 170 1
150 168 171 1
151 172 173 1
152 172 174 2
153 172 175 1
154 175 176 1
155 175 177 1
156 175 178 1
157 179 180 1
158 179 181 2
159 179 182 1
160 182 183 1
161 182 184 1
162 182 185 1
163 186 187 1
164 186 188 2
165 186 189 1
166 189 190 1
167 189 191 1
168 189 192 1
169 193 194 1
170 193 195 2
171 193 196 1
172 196 197 1
173 196 198 1
174 196 199 1
175 200 201 1
176 200 202 2
177 200 203 1
178 203 204 1
179 203 205 1
180 203 206 1
181 207 208 1
182 207 209 2
183 207 210 1
184 210 211 1
185 210 212 1
186 210 213 1
187 214 215 1
188 214 216 2
189 214 217 1
190 217 218 1
191 217 219 1
192 217 220 1
193 221 222 1
194 221 223 2
195 221 224 1
196 224 225 1
197 224 226 1
198 224 227 1
199 228 229 1
200 228 230 2
201 228 231 1
202 231 232 1
203 231 233 1
204 231 234 1
205 235 236 1
206 235 237 2
207 235 238 1
208 238 239 1
209 238 240 1
210 238 241 1
211 242 243 1
212 242 244 2
213 242 245 1
214 245 246 1
215 245 247 1
216 245 248 1
217 249 250 1
218 249 251 2
219 249 252 1
220 252 253 1
221 252 254 1
222 252 255 1
223 256 257 1
224 256 258 2
225 256 259 1
226 259 260 1
227 259 261 1
228 259 262 1
229 263 264 1
230 263 265 2
231 263 266 1
232 266 267 1
233 266 268 1
234 266 269 1
235 270 271 1
236 270 272 2
237 270 273 1
238 273 274 1
239 273 275 1
240 273 276 1
241 277 278 1
242 277 279 2
243 277 280 1
244 280 281 1
245 280 282 1
246 280 283 1
247 284 285 1
248 284 286 2
249 284 287 1
250 287 288 1
251 287 289 1
252 287 290 1
253 291 292 1
254 291 293 2
255 291 294 1
256 294 295 1
257 294 296 1
258 294 297 1
259 298 299 1
260 298 300 2
261 298 301 1
262 301 302 1
263 301 303 1
264 301 304 1
265 305 306 1
266 305 307 2
267 305 308 1
268 308 309 1
269 308 310 1
270 308 311 1
271 312 313 1
272 312 314 2
273 312 315 1
274 315 316 1
275 315 317 1
276 315 318 1
277 319 320 1
278 319 321 2
279 319 322 1
280 322 323 1
281 322 324 1
282 322 325 1
283 326 327 1
284 326 328 2
285 326 329 1
286 329 330 1
287 329 331 1
288 329 332 1
289 333 334 1
290 333 335 2
291 333 336 1
292 336 337 1
293 336 338 1
294 336 339 1
295 340 341 1
296 340 342 2
297 340 343 1
298 343 344 1
299 343 345 1
300 343 346 1
301 347 348 1
302 347 349 2
303 347 350 1
304 350 351 1
305 350 352 1
306 350 353 1
307 354 355 1
308 354 356 2
309 354 357 1
310 357 358 1
311 357 359 1
312 357 360 1
313 361 362 1
314 361 363 2
315 361 364 1
316 364 365 1
317 364 366 1
318 364 367 1
319 368 369 1
320 368 370 2
321 368 371 1
322 371 372 1
323 371 373 1
324 371 374 1
