@<TRIPOS>MOLECULE
Molecule Name
346 300
SMALL
NO_CHARGES

@<TRIPOS>ATOM
1 C1	0.0000	0.0000	0.0000 C
2 O2	-1.2347	0.0000	0.0000 O
3 O3	0.7332	1.1692	0.0000 O
4 H4	0.1359	1.9479	-0.0325 H
5 C5	2.2755	-0.7826	-3.4640 C
6 H6	3.2413	-0.3329	-3.2698 H
7 H7	1.9769	-0.8658	-4.5014 H
8 C8	1.4602	-1.2315	-2.4830 C
9 C9	0.0990	-1.8203	-2.7934 C
10 H10	-0.7193	-1.2571	-2.3297 H
11 H11	-0.0680	-1.8228	-3.8726 H
12 H12	0.0265	-2.8551	-2.4339 H
13 C13	3.2281	-1.5351	0.7320 C
14 C14	3.2027	-0.9449	-0.6870 C
15 N15	1.8381	-1.2479	-1.1331 N
16 C16	0.8878	-1.2386	-0.0108 C
17 C17	1.7944	-1.2928	1.2635 C
18 H18	3.4398	-2.6088	0.6797 H
19 H19	3.9861	-1.0698	1.3691 H
20 H20	3.9203	-1.4245	-1.3601 H
21 H21	3.4061	0.1377	-0.6818 H
22 H22	0.2065	-2.0925	-0.0630 H
23 H23	1.7453	-0.3388	1.7959 H
24 H24	1.4618	-2.0772	1.9484 H
25 C25	-3.1855	2.5164	-0.0010 C
26 H26	-3.9277	1.7269	0.2239 H
27 O27	-2.3576	2.8503	0.8540 O
28 C28	-3.2754	3.1146	-1.3769 C
29 H29	-4.2693	3.5548	-1.5331 H
30 H30	-2.5092	3.8810	-1.5114 H
31 H31	-3.1523	2.3322	-2.1376 H
32 C32	1.5901	5.3604	0.4835 C
33 H33	2.5746	4.9010	0.2729 H
34 O34	0.5710	4.6610	0.5018 O
35 C35	1.6088	6.8425	0.7329 C
36 H36	2.0279	7.3664	-0.1365 H
37 H37	0.5996	7.2096	0.9313 H
38 H38	2.2601	7.0736	1.5863 H
39 C39	-3.2608	1.2838	1.4942 C
40 H40	-3.8636	1.3109	0.5666 H
41 O41	-2.4917	2.2141	1.7609 O
42 C42	-3.4565	0.0685	2.3566 C
43 H43	-3.2134	-0.8400	1.7895 H
44 H44	-2.8258	0.1255	3.2463 H
45 H45	-4.5097	-0.0168	2.6556 H
46 C46	-2.0426	4.6230	0.8633 C
47 H47	-2.2682	4.7458	-0.2131 H
48 O48	-0.9339	4.2094	1.2208 O
49 C49	-3.1571	4.9888	1.8029 C
50 H50	-4.0458	4.3797	1.5900 H
51 H51	-2.8484	4.8377	2.8395 H
52 H52	-3.4482	6.0370	1.6536 H
53 C53	-2.4333	4.3346	-1.9099 C
54 H54	-2.5831	3.8859	-2.9103 H
55 O55	-1.6949	3.7817	-1.0870 O
56 C56	-3.1762	5.6168	-1.6591 C
57 H57	-4.2560	5.4576	-1.7808 H
58 H58	-2.9709	5.9869	-0.6524 H
59 H59	-2.8823	6.3742	-2.3979 H
60 C60	-3.6227	-1.3046	2.2183 C
61 H61	-3.8455	-1.7260	1.2197 H
62 O62	-3.1530	-2.0266	3.1050 O
63 C63	-3.9302	0.1571	2.3861 C
64 H64	-4.9943	0.3441	2.1891 H
65 H65	-3.6804	0.4867	3.3968 H
66 H66	-3.3638	0.7485	1.6544 H
67 C67	-3.5908	3.2360	0.3015 C
68 H68	-4.3931	2.5466	-0.0232 H
69 O69	-2.4308	3.0651	-0.0900 O
70 C70	-4.0240	4.3454	1.2184 C
71 H71	-4.4762	3.9283	2.1282 H
72 H72	-3.1723	4.9740	1.4868 H
73 H73	-4.7957	4.9571	0.7327 H
74 C74	0.9042	5.6403	0.3738 C
75 H75	0.5108	5.9550	-0.6115 H
76 O76	1.2126	4.4593	0.5695 O
77 C77	1.0221	6.7313	1.4009 C
78 H78	0.0402	7.1898	1.5791 H
79 H79	1.4167	6.3330	2.3380 H
80 H80	1.6815	7.5279	1.0316 H
81 C81	0.1838	5.1004	-2.3096 C
82 H82	-0.8444	5.1091	-2.7186 H
83 O83	0.6291	4.0791	-1.7741 O
84 C84	0.9498	6.3849	-2.4595 C
85 H85	0.4137	7.2044	-1.9623 H
86 H86	1.9491	6.2863	-2.0304 H
87 H87	1.0288	6.6557	-3.5207 H
88 C88	-0.7630	-6.1610	-0.8096 C
89 H89	-1.0232	-6.7815	0.0689 H
90 O90	-0.6689	-4.9337	-0.6955 O
91 C91	-0.5455	-6.9148	-2.0916 C
92 H92	-1.4492	-7.4806	-2.3548 H
93 H93	-0.2942	-6.2269	-2.9017 H
94 H94	0.2621	-7.6481	-1.9661 H
95 C95	-4.6934	2.4456	-1.1817 C
96 H96	-5.2581	1.5003	-1.0715 H
97 O97	-4.7774	3.0993	-2.2274 O
98 C98	-3.8560	2.8397	0.0026 C
99 H99	-3.1234	2.0526	0.2257 H
100 H100	-3.3363	3.7802	-0.1928 H
101 H101	-4.4886	2.9458	0.8938 H
102 C102	-3.2650	-4.0154	-0.9189 C
103 H103	-3.7762	-3.0651	-1.1642 H
104 O104	-2.0343	-4.0964	-1.0016 O
105 C105	-4.1649	-5.1428	-0.4964 C
106 H106	-4.8905	-5.3645	-1.2904 H
107 H107	-3.5788	-6.0371	-0.2746 H
108 H108	-4.7440	-4.8517	0.3900 H
109 C109	-5.5023	0.8966	-0.6145 C
110 H110	-5.3093	1.6562	0.1668 H
111 O111	-6.0464	1.2230	-1.6753 O
112 C112	-5.0618	-0.5009	-0.2796 C
113 H113	-5.5633	-0.8461	0.6343 H
114 H114	-5.2899	-1.1812	-1.1029 H
115 H115	-3.9831	-0.5179	-0.0749 H
116 C116	0.2996	-5.3243	0.3939 C
117 H117	-0.0667	-4.9516	-0.5815 H
118 O118	1.2685	-4.7842	0.9395 O
119 C119	-0.4555	-6.4919	0.9644 C
120 H120	-0.4255	-7.3387	0.2657 H
121 H121	-0.0279	-6.7920	1.9234 H
122 H122	-1.5132	-6.2287	1.0980 H
123 C123	1.2162	-5.7926	1.0467 C
124 H124	0.4738	-5.7064	0.2306 H
125 O125	1.3542	-4.8710	1.8588 O
126 C126	2.0021	-7.0736	1.0726 C
127 H127	2.5475	-7.2011	0.1280 H
128 H128	2.7073	-7.0726	1.9064 H
129 H129	1.3228	-7.9315	1.1646 H
130 C130	-5.3995	2.5168	0.0004 C
131 H131	-5.5702	2.1378	-1.0251 H
132 O132	-5.9260	3.5737	0.3662 O
133 C133	-4.5105	1.6664	0.8639 C
134 H134	-3.5238	1.5544	0.3949 H
135 H135	-4.3978	2.1137	1.8538 H
136 H136	-4.9318	0.6570	0.9607 H
137 C137	0.7390	-5.4623	3.0179 C
138 H138	0.4237	-4.9587	3.9514 H
139 O139	1.4422	-4.8624	2.1971 O
140 C140	0.2551	-6.8755	2.8510 C
141 H141	-0.8424	-6.9042	2.8759 H
142 H142	0.6119	-7.2928	1.9070 H
143 H143	0.6074	-7.4963	3.6855 H
144 C144	-1.6660	-4.8186	-0.2606 C
145 H145	-2.4726	-4.0722	-0.1305 H
146 O146	-0.6236	-4.7257	0.3972 O
147 C147	-1.9447	-5.9028	-1.2637 C
148 H148	-2.1371	-5.4629	-2.2514 H
149 H149	-1.0995	-6.5915	-1.3269 H
150 H150	-2.8506	-6.4551	-0.9808 H
151 C151	-3.9337	0.3272	3.7664 C
152 H152	-4.6082	0.8717	3.0786 H
153 O153	-3.7613	0.7379	4.9195 O
154 C154	-3.2793	-0.8987	3.1937 C
155 H155	-2.6872	-0.6319	2.3081 H
156 H156	-2.6344	-1.3708	3.9379 H
157 H157	-4.0432	-1.6137	2.8604 H
158 C158	-0.5699	5.0663	-0.9040 C
159 H159	0.4451	5.0462	-1.3443 H
160 O160	-1.3296	4.1028	-1.0540 O
161 C161	-0.9199	6.3148	-0.1438 C
162 H162	-0.8373	7.1918	-0.7996 H
163 H163	-1.9346	6.2482	0.2542 H
164 H164	-0.2096	6.4669	0.6797 H
165 C165	4.3621	-5.9251	-0.7838 C
166 H166	4.1149	-6.9921	-0.9414 H
167 O167	3.9179	-5.3249	0.2013 O
168 C168	5.2457	-5.3053	-1.8299 C
169 H169	4.7725	-5.3825	-2.8179 H
170 H170	5.4374	-4.2560	-1.5956 H
171 H171	6.1974	-5.8497	-1.8910 H
172 C172	-1.0204	-1.1745	4.6921 C
173 H173	-1.8228	-1.8639	4.3675 H
174 O174	0.1396	-1.3454	4.3007 O
175 C175	-1.4536	-0.0652	5.6091 C
176 H176	-1.9058	-0.4822	6.5189 H
177 H177	-0.6020	0.5635	5.8775 H
178 H178	-2.2254	0.5466	5.1234 H
179 C179	-4.2540	-0.3118	-1.7461 C
180 H180	-3.8584	0.3104	-0.9210 H
181 O181	-3.7834	-0.2041	-2.8841 O
182 C182	-5.3633	-1.2538	-1.3704 C
183 H183	-6.2117	-0.6923	-0.9568 H
184 H184	-5.6910	-1.8253	-2.2413 H
185 H185	-5.0247	-1.9412	-0.5839 H
186 C186	-5.7656	-1.8084	0.6890 C
187 H187	-6.0640	-1.7092	-0.3721 H
188 O188	-6.3597	-2.6013	1.4282 O
189 C189	-4.6258	-0.9308	1.1245 C
190 H190	-4.8781	0.1253	0.9596 H
191 H191	-4.3998	-1.0936	2.1804 H
192 H192	-3.7342	-1.1418	0.5192 H
193 C193	6.3190	-4.4351	-0.8471 C
194 H194	5.6872	-5.3435	-0.8308 H
195 O195	5.8239	-3.3312	-0.5938 O
196 C196	7.7651	-4.6601	-1.1896 C
197 H197	7.8503	-5.1279	-2.1795 H
198 H198	8.3113	-3.7144	-1.1823 H
199 H199	8.2198	-5.3545	-0.4707 H
200 C200	-5.7274	0.5210	1.9065 C
201 H201	-6.3254	0.7173	0.9963 H
202 O202	-6.0527	1.0321	2.9840 O
203 C203	-4.5405	-0.3816	1.7175 C
204 H204	-3.8574	0.0443	0.9705 H
205 H205	-4.0110	-0.5199	2.6626 H
206 H206	-4.8654	-1.3565	1.3304 H
207 C207	-0.1989	2.4772	3.4346 C
208 H208	0.3600	1.5317	3.5695 H
209 O209	-0.9455	2.6221	2.4601 O
210 C210	0.0247	3.5171	4.4965 C
211 H211	1.0899	3.7790	4.5500 H
212 H212	-0.5633	4.4126	4.2845 H
213 H213	-0.2532	3.1175	5.4808 H
214 C214	-5.2862	1.2307	-1.3177 C
215 H215	-5.7557	0.4924	-1.9952 H
216 O216	-5.2147	2.4191	-1.6500 O
217 C217	-4.7690	0.6783	-0.0190 C
218 H218	-4.0204	-0.1017	-0.2119 H
219 H219	-4.3244	1.4727	0.5842 H
220 H220	-5.5853	0.2027	0.5407 H
221 C221	4.1431	-3.6068	4.1689 C
222 H222	4.0064	-2.6137	4.6376 H
223 O223	3.5000	-3.9083	3.1572 O
224 C224	5.1359	-4.5096	4.8458 C
225 H225	4.8373	-4.6851	5.8880 H
226 H226	5.2068	-5.4633	4.3187 H
227 H227	6.1233	-4.0300	4.8756 H
228 C228	6.2439	-4.7294	-0.7264 C
229 H229	6.6592	-5.1740	0.1980 H
230 O230	5.6518	-3.6452	-0.6808 O
231 C231	6.4575	-5.5295	-1.9806 C
232 H232	6.0082	-6.5259	-1.8740 H
233 H233	6.0175	-5.0185	-2.8396 H
234 H234	7.5312	-5.6827	-2.1525 H
235 C235	-5.5228	0.8469	1.5040 C
236 H236	-5.4333	0.3280	2.4773 H
237 O237	-6.5801	1.4083	1.1959 O
238 C238	-4.2971	0.8062	0.6350 C
239 H239	-4.0215	-0.2347	0.4194 H
240 H240	-4.4741	1.3405	-0.3009 H
241 H241	-3.4456	1.2569	1.1619 H
242 C242	2.4779	-3.5363	-6.6275 C
243 H243	3.1164	-3.6676	-5.7333 H
244 O244	1.7269	-2.5583	-6.7146 O
245 C245	2.6042	-4.6072	-7.6746 C
246 H246	2.3564	-5.5869	-7.2445 H
247 H247	1.9418	-4.3981	-8.5172 H
248 H248	3.6422	-4.6695	-8.0276 H
249 C249	4.2283	-5.2653	-4.6095 C
250 H250	5.2420	-4.9290	-4.3197 H
251 O251	3.8751	-6.4293	-4.3900 O
252 C252	3.3644	-4.2235	-5.2633 C
253 H253	3.8501	-3.8472	-6.1736 H
254 H254	2.3867	-4.6403	-5.5144 H
255 H255	3.2377	-3.3631	-4.5930 H
256 C256	-4.3549	-2.8761	2.0057 C
257 H257	-5.0747	-3.3052	1.2829 H
258 O258	-4.3265	-3.2880	3.1708 O
259 C259	-3.4592	-1.7981	1.4628 C
260 H260	-4.0620	-0.9649	1.0774 H
261 H261	-2.7846	-1.4340	2.2406 H
262 H262	-2.8741	-2.1836	0.6174 H
263 C263	3.6412	2.9720	-3.5606 C
264 H264	2.7860	2.9784	-2.8584 H
265 O265	4.5455	2.1396	-3.4283 O
266 C266	3.6009	4.0197	-4.6374 C
267 H267	3.5620	5.0212	-4.1885 H
268 H268	4.4793	3.9400	-5.2814 H
269 H269	2.6899	3.9070	-5.2401 H
270 C270	-3.5410	-2.9072	2.9989 C
271 H271	-2.5470	-3.0776	3.4543 H
272 O272	-4.5640	-3.2712	3.5898 O
273 C273	-3.5298	-2.2250	1.6597 C
274 H274	-2.9443	-2.8137	0.9409 H
275 H275	-4.5484	-2.0980	1.2868 H
276 H276	-3.0410	-1.2449	1.7393 H
277 C277	-2.4806	-5.0085	-0.7616 C
278 H278	-3.3916	-4.4227	-0.9887 H
279 O279	-1.5304	-5.0081	-1.5522 O
280 C280	-2.5072	-5.7674	0.5355 C
281 H281	-3.3510	-6.4701	0.5447 H
282 H282	-1.5726	-6.3141	0.6777 H
283 H283	-2.6616	-5.0758	1.3744 H
284 C284	2.7009	-5.3985	-2.7406 C
285 H285	2.9532	-5.0051	-3.7437 H
286 O286	1.5934	-5.1650	-2.2439 O
287 C287	3.7797	-6.2040	-2.0724 C
288 H288	4.6887	-5.5980	-1.9600 H
289 H289	3.4462	-6.5508	-1.0920 H
290 H290	4.0489	-7.0662	-2.6970 H
291 C291	-1.3675	4.8219	-0.1975 C
292 H292	-1.5036	4.8179	-1.2957 H
293 O293	-1.8106	3.8916	0.4852 O
294 C294	-0.6292	6.0075	0.3577 C
295 H295	-1.1545	6.9358	0.0962 H
296 H296	-0.5412	5.9289	1.4434 H
297 H297	0.3714	6.0728	-0.0899 H
298 C298	-4.3924	-0.0575	3.7490 C
299 H299	-4.1881	-0.9769	4.3300 H
300 O300	-5.5098	0.4690	3.7947 O
301 C301	-3.2390	0.4644	2.9388 C
302 H302	-2.9035	-0.2989	2.2241 H
303 H303	-3.5285	1.3694	2.4005 H
304 H304	-2.3851	0.6820	3.5941 H
305 C305	-3.5364	-3.1862	2.4500 C
306 H306	-4.3726	-2.4877	2.2562 H
307 O307	-3.7026	-4.1614	3.1912 O
308 C308	-2.2433	-2.8531	1.7602 C
309 H309	-1.9020	-1.8533	2.0601 H
310 H310	-1.4774	-3.5916	2.0065 H
311 H311	-2.3920	-2.8242	0.6726 H
312 C312	1.9838	4.4091	-2.9691 C
313 H313	2.4276	5.3808	-2.6801 H
314 O314	0.8744	4.3717	-3.5129 O
315 C315	2.8172	3.1988	-2.6533 C
316 H316	3.0199	3.1509	-1.5750 H
317 H317	2.3049	2.2883	-2.9713 H
318 H318	3.7909	3.2692	-3.1559 H
319 C319	2.6845	4.5370	-2.5759 C
320 H320	2.3691	5.0406	-1.6424 H
321 O321	3.3876	5.1369	-3.3967 O
322 C322	2.2006	3.1238	-2.7428 C
323 H323	1.1030	3.0951	-2.7178 H
324 H324	2.5573	2.7065	-3.6868 H
325 H325	2.5528	2.5030	-1.9083 H
326 C326	4.8217	1.6306	-6.6982 C
327 H327	4.8979	0.5621	-6.9758 H
328 O328	5.8287	2.3475	-6.7109 O
329 C329	3.4455	2.1041	-6.3229 C
330 H330	3.0657	1.5237	-5.4715 H
331 H331	3.4634	3.1651	-6.0650 H
332 H332	2.7490	1.9382	-7.1554 H
333 C333	3.1498	4.0434	-5.3781 C
334 H334	3.2912	3.5886	-6.3769 H
335 O335	3.3253	5.2567	-5.2191 O
336 C336	2.7441	3.0928	-4.2868 C
337 H337	3.4979	2.3020	-4.1754 H
338 H338	2.6275	3.6248	-3.3403 H
339 H339	1.8006	2.5964	-4.5500 H
340 C340	4.2818	-4.3739	-7.0100 C
341 H341	3.5611	-5.1905	-7.2063 H
342 O342	5.2545	-4.2132	-7.7556 O
343 C343	3.9803	-3.5209	-5.8097 C
344 H344	3.9446	-4.1418	-4.9046 H
345 H345	4.7390	-2.7443	-5.6924 H
346 H346	2.9905	-3.0571	-5.9151 H
@<TRIPOS>BOND
1 1 2 2
2 1 3 1
3 1 16 1
4 3 4 1
5 5 6 1
6 5 7 1
7 5 8 2
8 8 9 1
9 8 15 1
10 9 10 1
11 9 11 1
12 9 12 1
13 13 14 1
14 13 17 1
15 13 18 1
16 13 19 1
17 14 15 1
18 14 20 1
19 14 21 1
20 15 16 1
21 16 17 1
22 16 22 1
23 17 23 1
24 17 24 1
25 25 26 1
26 25 27 2
27 25 28 1
28 28 29 1
29 28 30 1
30 28 31 1
31 32 33 1
32 32 34 2
33 32 35 1
34 35 36 1
35 35 37 1
36 35 38 1
37 39 40 1
38 39 41 2
39 39 42 1
40 42 43 1
41 42 44 1
42 42 45 1
43 46 47 1
44 46 48 2
45 46 49 1
46 49 50 1
47 49 51 1
48 49 52 1
49 53 54 1
50 53 55 2
51 53 56 1
52 56 57 1
53 56 58 1
54 56 59 1
55 60 61 1
56 60 62 2
57 60 63 1
58 63 64 1
59 63 65 1
60 63 66 1
61 67 68 1
62 67 69 2
63 67 70 1
64 70 71 1
65 70 72 1
66 70 73 1
67 74 75 1
68 74 76 2
69 74 77 1
70 77 78 1
71 77 79 1
72 77 80 1
73 81 82 1
74 81 83 2
75 81 84 1
76 84 85 1
77 84 86 1
78 84 87 1
79 88 89 1
80 88 90 2
81 88 91 1
82 91 92 1
83 91 93 1
84 91 94 1
85 95 96 1
86 95 97 2
87 95 98 1
88 98 99 1
89 98 100 1
90 98 101 1
91 102 103 1
92 102 104 2
93 102 105 1
94 105 106 1
95 105 107 1
96 105 108 1
97 109 110 1
98 109 111 2
99 109 112 1
100 112 113 1
101 112 114 1
102 112 115 1
103 116 117 1
104 116 118 2
105 116 119 1
106 119 120 1
107 119 121 1
108 119 122 1
109 123 124 1
110 123 125 2
111 123 126 1
112 126 127 1
113 126 128 1
114 126 129 1
115 130 131 1
116 130 132 2
117 130 133 1
118 133 134 1
119 133 135 1
120 133 136 1
121 137 138 1
122 137 139 2
123 137 140 1
124 140 141 1
125 140 142 1
126 140 143 1
127 144 145 1
128 144 146 2
129 144 147 1
130 147 148 1
131 147 149 1
132 147 150 1
133 151 152 1
134 151 153 2
135 151 154 1
136 154 155 1
137 154 156 1
138 154 157 1
139 158 159 1
140 158 160 2
141 158 161 1
142 161 162 1
143 161 163 1
144 161 164 1
145 165 166 1
146 165 167 2
147 165 168 1
148 168 169 1
149 168 170 1
150 168 171 1
151 172 173 1
152 172 174 2
153 172 175 1
154 175 176 1
155 175 177 1
156 175 178 1
157 179 180 1
158 179 181 2
159 179 182 1
160 182 183 1
161 182 184 1
162 182 185 1
163 186 187 1
164 186 188 2
165 186 189 1
166 189 190 1
167 189 191 1
168 189 192 1
169 193 194 1
170 193 195 2
171 193 196 1
172 196 197 1
173 196 198 1
174 196 199 1
175 200 201 1
176 200 202 2
177 200 203 1
178 203 204 1
179 203 205 1
180 203 206 1
181 207 208 1
182 207 209 2
183 207 210 1
184 210 211 1
185 210 212 1
186 210 213 1
187 214 215 1
188 214 216 2
189 214 217 1
190 217 218 1
191 217 219 1
192 217 220 1
193 221 222 1
194 221 223 2
195 221 224 1
196 224 225 1
197 224 226 1
198 224 227 1
199 228 229 1
200 228 230 2
201 228 231 1
202 231 232 1
203 231 233 1
204 231 234 1
205 235 236 1
206 235 237 2
207 235 238 1
208 238 239 1
209 238 240 1
210 238 241 1
211 242 243 1
212 242 244 2
213 242 245 1
214 245 246 1
215 245 247 1
216 245 248 1
217 249 250 1
218 249 251 2
219 249 252 1
220 252 253 1
221 252 254 1
222 252 255 1
223 256 257 1
224 256 258 2
225 256 259 1
226 259 260 1
227 259 261 1
228 259 262 1
229 263 264 1
230 263 265 2
231 263 266 1
232 266 267 1
233 266 268 1
234 266 269 1
235 270 271 1
236 270 272 2
237 270 273 1
238 273 274 1
239 273 275 1
240 273 276 1
241 277 278 1
242 277 279 2
243 277 280 1
244 280 281 1
245 280 282 1
246 280 283 1
247 284 285 1
248 284 286 2
249 284 287 1
250 287 288 1
251 287 289 1
252 287 290 1
253 291 292 1
254 291 293 2
255 291 294 1
256 294 295 1
257 294 296 1
258 294 297 1
259 298 299 1
260 298 300 2
261 298 301 1
262 301 302 1
263 301 303 1
264 301 304 1
265 305 306 1
266 305 307 2
267 305 308 1
268 308 309 1
269 308 310 1
270 308 311 1
271 312 313 1
272 312 314 2
273 312 315 1
274 315 316 1
275 315 317 1
276 315 318 1
277 319 320 1
278 319 321 2
279 319 322 1
280 322 323 1
281 322 324 1
282 322 325 1
283 326 327 1
284 326 328 2
285 326 329 1
286 329 330 1
287 329 331 1
288 329 332 1
289 333 334 1
290 333 335 2
291 333 336 1
292 336 337 1
293 336 338 1
294 336 339 1
295 340 341 1
296 340 342 2
297 340 343 1
298 343 344 1
299 343 345 1
300 343 346 1
