@<TRIPOS>MOLECULE
Molecule Name
353 306
SMALL
NO_CHARGES

@<TRIPOS>ATOM
1 C1	0.0000	0.0000	0.0000 C
2 O2	-1.2347	0.0000	0.0000 O
3 O3	0.7299	1.1715	0.0000 O
4 H4	0.1277	1.9474	-0.0239 H
5 N5	1.8600	-1.2616	-1.0929 N
6 C6	3.0751	-0.6092	0.8637 C
7 C7	3.1961	-0.8175	-0.6630 C
8 C8	2.4721	-1.3227	-3.4265 C
9 H9	3.4738	-0.9518	-3.2521 H
10 H10	2.2131	-1.5605	-4.4503 H
11 C11	1.5646	-1.5038	-2.4383 C
12 C12	0.1771	-2.0333	-2.7349 C
13 H13	-0.6129	-1.3593	-2.3830 H
14 H14	0.0526	-2.1641	-3.8117 H
15 H15	0.0098	-3.0073	-2.2560 H
16 C16	0.8812	-1.2464	-0.0050 C
17 C17	1.7731	-1.3436	1.2594 C
18 H18	3.9428	-1.0025	1.4017 H
19 H19	2.9877	0.4561	1.0911 H
20 H20	3.9379	-1.5844	-0.9281 H
21 H21	3.4848	0.1114	-1.1735 H
22 H22	0.1905	-2.0899	-0.0736 H
23 H23	1.2959	-0.9176	2.1469 H
24 H24	1.9682	-2.4035	1.4568 H
25 C25	-1.3326	4.5893	2.3717 C
26 H26	-1.1633	3.9756	3.2769 H
27 O27	-0.9853	4.1673	1.2630 O
28 C28	-1.9924	5.9191	2.6069 C
29 H29	-1.3879	6.5239	3.2961 H
30 H30	-2.1199	6.4547	1.6638 H
31 H31	-2.9704	5.7760	3.0853 H
32 C32	0.3761	4.6726	-2.6551 C
33 H33	0.4663	4.0135	-3.5394 H
34 O34	-0.1146	4.2391	-1.6066 O
35 C35	0.8821	6.0757	-2.8407 C
36 H36	0.3430	6.5658	-3.6624 H
37 H37	0.7546	6.6526	-1.9223 H
38 H38	1.9432	6.0602	-3.1226 H
39 C39	0.1737	5.5093	-0.4558 C
40 H40	-0.3739	5.2821	-1.3903 H
41 O41	0.1655	4.7010	0.4794 O
42 C42	0.8928	6.8289	-0.4329 C
43 H43	0.1812	7.6495	-0.5955 H
44 H44	1.4034	6.9695	0.5221 H
45 H45	1.6226	6.8755	-1.2521 H
46 C46	-2.2918	3.7533	-1.9778 C
47 H47	-1.4808	3.6183	-2.7185 H
48 O48	-2.1161	3.4239	-0.7994 O
49 C49	-3.5647	4.3459	-2.5143 C
50 H50	-3.9660	3.7141	-3.3179 H
51 H51	-4.3063	4.4429	-1.7186 H
52 H52	-3.3656	5.3315	-2.9555 H
53 C53	-1.8939	5.0212	-0.5767 C
54 H54	-2.2185	4.8003	-1.6113 H
55 O55	-1.6480	4.0969	0.2064 O
56 C56	-1.7856	6.4799	-0.2311 C
57 H57	-2.7551	6.9752	-0.3758 H
58 H58	-1.4607	6.6045	0.8040 H
59 H59	-1.0731	6.9755	-0.9038 H
60 C60	-2.8647	1.6153	-2.1754 C
61 H61	-3.2386	0.7068	-2.6848 H
62 O62	-1.6560	1.8740	-2.1777 O
63 C63	-3.9144	2.4631	-1.5132 C
64 H64	-4.4566	1.8740	-0.7614 H
65 H65	-3.4585	3.3342	-1.0380 H
66 H66	-4.6561	2.7921	-2.2531 H
67 C67	-2.0005	-4.8550	0.1543 C
68 H68	-2.6009	-4.0689	0.6505 H
69 O69	-0.7790	-4.7143	0.0273 O
70 C70	-2.7733	-6.0510	-0.3268 C
71 H71	-3.5462	-5.7386	-1.0416 H
72 H72	-2.1047	-6.7726	-0.8011 H
73 H73	-3.2938	-6.5276	0.5145 H
74 C74	-2.9888	3.0378	0.5844 C
75 H75	-2.9388	2.1596	1.2558 H
76 O76	-2.7369	4.1666	1.0208 O
77 C77	-3.3730	2.7425	-0.8383 C
78 H78	-4.3578	2.2577	-0.8706 H
79 H79	-3.3972	3.6623	-1.4266 H
80 H80	-2.6582	2.0380	-1.2840 H
81 C81	-0.4543	-5.3228	0.7521 C
82 H82	-1.3531	-4.7199	0.9830 H
83 O83	0.6409	-4.7697	0.6010 O
84 C84	-0.6804	-6.8048	0.6449 C
85 H85	-1.4198	-7.0183	-0.1385 H
86 H86	0.2556	-7.3188	0.4161 H
87 H87	-1.0941	-7.1926	1.5852 H
88 C88	3.2058	3.9805	-0.7598 C
89 H89	3.5419	3.1550	-1.4156 H
90 O90	2.1144	3.9092	-0.1836 O
91 C91	4.1554	5.1396	-0.6419 C
92 H92	4.3457	5.5740	-1.6324 H
93 H93	3.7451	5.9040	0.0214 H
94 H94	5.1240	4.7963	-0.2550 H
95 C95	-1.4813	-2.1192	3.2961 C
96 H96	-1.2309	-1.1755	3.8169 H
97 O97	-0.5798	-2.8587	2.8859 O
98 C98	-2.9494	-2.4024	3.1424 C
99 H99	-3.4344	-1.5899	2.5850 H
100 H100	-3.1035	-3.3490	2.6200 H
101 H101	-3.4315	-2.4421	4.1282 H
102 C102	-3.5683	-0.1461	3.5191 C
103 H103	-3.5115	0.9096	3.1925 H
104 O104	-3.3215	-0.4459	4.6927 O
105 C105	-3.9550	-1.1324	2.4530 C
106 H106	-3.2373	-1.0917	1.6227 H
107 H107	-3.9864	-2.1446	2.8618 H
108 H108	-4.9370	-0.8721	2.0360 H
109 C109	3.1930	-4.7489	-0.7540 C
110 H110	3.4625	-4.2312	-1.6942 H
111 O111	2.0162	-4.7753	-0.3765 O
112 C112	4.3372	-5.3855	-0.0161 C
113 H113	5.0900	-4.6278	0.2394 H
114 H114	3.9815	-5.8713	0.8950 H
115 H115	4.8360	-6.1241	-0.6576 H
116 C116	-0.2616	-5.2895	1.9181 C
117 H117	-0.0041	-5.7575	2.8872 H
118 O118	-0.3696	-4.0611	1.8323 O
119 C119	-0.4578	-6.2424	0.7724 C
120 H120	-1.2594	-6.9554	1.0073 H
121 H121	-0.7076	-5.6969	-0.1401 H
122 H122	0.4542	-6.8326	0.6117 H
123 C123	-1.4280	1.4838	-3.8112 C
124 H124	-1.5160	0.5859	-4.4520 H
125 O125	-0.8657	1.4088	-2.7129 O
126 C126	-2.0277	2.7414	-4.3753 C
127 H127	-3.0974	2.5931	-4.5747 H
128 H128	-1.8957	3.5731	-3.6800 H
129 H129	-1.5570	2.9858	-5.3368 H
130 C130	-3.9633	3.3411	1.3136 C
131 H131	-4.1116	3.9579	0.4069 H
132 O132	-3.5920	3.8686	2.3681 O
133 C133	-4.2424	1.8733	1.1494 C
134 H134	-3.5986	1.4519	0.3659 H
135 H135	-4.0713	1.3441	2.0892 H
136 H136	-5.2798	1.7204	0.8233 H
137 C137	-5.2244	-1.1703	2.3332 C
138 H138	-5.9636	-0.4246	1.9840 H
139 O139	-5.1843	-1.4915	3.5263 O
140 C140	-4.3184	-1.7281	1.2716 C
141 H141	-3.7540	-0.9170	0.7925 H
142 H142	-3.6248	-2.4529	1.7031 H
143 H143	-4.9122	-2.2096	0.4833 H
144 C144	3.8614	-4.1920	4.0033 C
145 H145	3.5044	-5.0613	3.4190 H
146 O146	3.4617	-3.0548	3.7294 O
147 C147	4.8307	-4.5096	5.1072 C
148 H148	5.7196	-5.0076	4.6975 H
149 H149	5.1286	-3.5975	5.6287 H
150 H150	4.3752	-5.2101	5.8197 H
151 C151	5.4458	-5.0742	-0.6788 C
152 H152	5.6748	-5.8555	0.0707 H
153 O153	5.4159	-3.8845	-0.3445 O
154 C154	5.1871	-5.5724	-2.0730 C
155 H155	4.3423	-6.2741	-2.0726 H
156 H156	4.9708	-4.7378	-2.7433 H
157 H157	6.0594	-6.1270	-2.4437 H
158 C158	6.8202	-3.0735	0.8997 C
159 H159	7.1959	-2.1384	1.3570 H
160 O160	5.6208	-3.1904	0.6244 O
161 C161	7.8558	-4.1355	0.6569 C
162 H162	8.3407	-4.4131	1.6024 H
163 H163	7.3990	-5.0187	0.2055 H
164 H164	8.6446	-3.7499	-0.0025 H
165 C165	6.3207	-3.3871	-3.0247 C
166 H166	7.2800	-3.7701	-2.6275 H
167 O167	5.9543	-2.2372	-2.7576 O
168 C168	5.5439	-4.3505	-3.8776 C
169 H169	5.3144	-5.2601	-3.3066 H
170 H170	4.6160	-3.8912	-4.2249 H
171 H171	6.1472	-4.6619	-4.7407 H
172 C172	1.2115	-5.4278	3.4579 C
173 H173	0.1273	-5.2069	3.4766 H
174 O174	1.9202	-4.9771	2.5510 O
175 C175	1.7156	-6.2858	4.5844 C
176 H176	1.1915	-7.2508	4.5877 H
177 H177	2.7905	-6.4520	4.4868 H
178 H178	1.5023	-5.8061	5.5489 H
179 C179	4.5394	-4.9987	2.0845 C
180 H180	4.9798	-4.7779	3.0754 H
181 O181	4.2081	-4.0743	1.3337 O
182 C182	4.3898	-6.4574	1.7545 C
183 H183	3.7569	-6.9511	2.5040 H
184 H184	3.9495	-6.5818	0.7629 H
185 H185	5.3683	-6.9546	1.7890 H
186 C186	4.2153	-2.0824	4.5481 C
187 H187	4.2197	-0.9799	4.4534 H
188 O188	4.0135	-2.7889	3.5540 O
189 C189	4.4655	-2.6131	5.9318 C
190 H190	3.7069	-2.2284	6.6266 H
191 H191	4.4436	-3.7049	5.9323 H
192 H192	5.4390	-2.2632	6.3001 H
193 C193	5.7191	-3.5266	2.0113 C
194 H194	5.9887	-3.0089	1.0711 H
195 O195	4.5424	-3.5530	2.3888 O
196 C196	6.8634	-4.1631	2.7492 C
197 H197	7.6161	-3.4054	3.0047 H
198 H198	6.5077	-4.6489	3.6603 H
199 H199	7.3622	-4.9017	2.1077 H
200 C200	6.1003	-3.9754	1.0350 C
201 H201	5.8967	-4.5922	0.1391 H
202 O202	6.0860	-2.7419	0.9544 O
203 C203	6.3820	-4.7418	2.2968 C
204 H204	7.2515	-5.3973	2.1543 H
205 H205	6.5706	-4.0568	3.1261 H
206 H206	5.5316	-5.3922	2.5413 H
207 C207	-5.0107	2.3112	-1.7714 C
208 H208	-4.3905	3.0345	-2.3342 H
209 O209	-6.0244	1.8293	-2.2894 O
210 C210	-4.5274	1.9863	-0.3858 C
211 H211	-4.4730	2.9011	0.2193 H
212 H212	-5.1960	1.2682	0.0937 H
213 H213	-3.5108	1.5731	-0.4278 H
214 C214	0.1376	-3.9940	4.4128 C
215 H215	0.2504	-3.1106	5.0696 H
216 O216	0.7886	-4.0744	3.3651 O
217 C217	-0.8343	-5.0355	4.8921 C
218 H218	-1.8329	-4.5941	5.0102 H
219 H219	-0.8819	-5.8675	4.1863 H
220 H220	-0.5330	-5.4068	5.8806 H
221 C221	-5.3324	-2.2028	-1.3617 C
222 H222	-5.7625	-2.5092	-0.3892 H
223 O223	-6.0730	-1.8157	-2.2725 O
224 C224	-3.8359	-2.2973	-1.4648 C
225 H225	-3.5091	-3.3295	-1.2805 H
226 H226	-3.4998	-1.9769	-2.4532 H
227 H227	-3.3641	-1.6732	-0.6943 H
228 C228	0.9669	-5.8967	2.5467 C
229 H229	-0.0468	-6.0373	2.9676 H
230 O230	1.5872	-4.8492	2.7614 O
231 C231	1.4920	-7.0436	1.7295 C
232 H232	0.8192	-7.2449	0.8852 H
233 H233	2.4933	-6.8198	1.3557 H
234 H234	1.5206	-7.9580	2.3368 H
235 C235	7.2041	-2.0392	-1.9597 C
236 H236	6.6569	-2.9850	-2.1343 H
237 O237	6.6672	-1.1194	-1.3322 O
238 C238	8.5936	-1.9819	-2.5298 C
239 H239	8.5627	-2.1387	-3.6163 H
240 H240	9.0571	-1.0175	-2.3111 H
241 H241	9.2074	-2.7900	-2.1103 H
242 C242	3.6607	3.0213	-3.3262 C
243 H243	3.3966	2.3815	-4.1896 H
244 O244	4.2432	2.5356	-2.3502 O
245 C245	3.2634	4.4659	-3.4470 C
246 H246	2.1773	4.5483	-3.5870 H
247 H247	3.5617	5.0203	-2.5547 H
248 H248	3.7321	4.9135	-4.3335 H
249 C249	3.3932	-5.3911	3.4505 C
250 H250	4.1106	-4.9852	4.1888 H
251 O251	2.4884	-4.6749	3.0071 O
252 C252	3.6125	-6.8251	3.0573 C
253 H253	3.5611	-7.4716	3.9435 H
254 H254	2.8628	-7.1406	2.3286 H
255 H255	4.6168	-6.9504	2.6314 H
256 C256	-3.8346	-1.8832	-2.7524 C
257 H257	-4.0598	-1.3044	-3.6684 H
258 O258	-2.9864	-2.7820	-2.7801 O
259 C259	-4.6193	-1.4919	-1.5317 C
260 H260	-5.6952	-1.6007	-1.7235 H
261 H261	-4.3340	-2.1116	-0.6790 H
262 H262	-4.4452	-0.4341	-1.2940 H
263 C263	3.2087	-4.9757	-2.7055 C
264 H264	4.0276	-4.8680	-1.9690 H
265 O265	2.0308	-4.9380	-2.3325 O
266 C266	3.6432	-5.1631	-4.1321 C
267 H267	4.2738	-6.0578	-4.2204 H
268 H268	2.7745	-5.2601	-4.7867 H
269 H269	4.2556	-4.3108	-4.4553 H
270 C270	-4.8013	2.0596	-2.6851 C
271 H271	-5.0739	2.8243	-1.9331 H
272 O272	-5.1330	2.2066	-3.8668 O
273 C273	-4.0276	0.8832	-2.1592 C
274 H274	-4.6034	0.3721	-1.3761 H
275 H275	-3.8022	0.1824	-2.9658 H
276 H276	-3.0929	1.2236	-1.6940 H
277 C277	0.0940	0.2716	-6.1718 C
278 H278	1.1914	0.3921	-6.2480 H
279 O279	-0.4119	-0.8543	-6.2373 O
280 C280	-0.6846	1.5444	-5.9899 C
281 H281	-0.4943	2.2266	-6.8291 H
282 H282	-1.7539	1.3324	-5.9243 H
283 H283	-0.3544	2.0621	-5.0795 H
284 C284	-2.2960	-5.8347	-1.9550 C
285 H285	-2.4379	-6.5801	-2.7605 H
286 O286	-1.1570	-5.4747	-1.6374 O
287 C287	-3.5577	-5.3269	-1.3152 C
288 H288	-4.1247	-6.1622	-0.8831 H
289 H289	-3.3246	-4.5990	-0.5351 H
290 H290	-4.2043	-4.8627	-2.0717 H
291 C291	0.6679	-5.7607	-2.5654 C
292 H292	0.1265	-5.5133	-3.4983 H
293 O293	0.0392	-5.9901	-1.5262 O
294 C294	2.1665	-5.7898	-2.6766 C
295 H295	2.5391	-4.8135	-3.0145 H
296 H296	2.6165	-6.0411	-1.7138 H
297 H297	2.4750	-6.5252	-3.4314 H
298 C298	-0.9064	3.3007	-3.6154 C
299 H299	-1.7733	2.9829	-4.2254 H
300 O300	-0.8442	4.4566	-3.1818 O
301 C301	0.1366	2.2454	-3.3758 C
302 H302	0.5339	1.8829	-4.3333 H
303 H303	0.9514	2.6442	-2.7678 H
304 H304	-0.3114	1.3795	-2.8705 H
305 C305	-3.9994	0.5738	3.6775 C
306 H306	-3.5806	1.5969	3.7263 H
307 O307	-4.9123	0.2407	4.4414 O
308 C308	-3.3831	-0.3280	2.6449 C
309 H309	-2.3053	-0.4310	2.8285 H
310 H310	-3.8549	-1.3127	2.6668 H
311 H311	-3.4936	0.1121	1.6450 H
312 C312	0.6964	-4.5070	-6.4723 C
313 H313	1.7752	-4.3585	-6.6690 H
314 O314	-0.0330	-3.5336	-6.2517 O
315 C315	0.2255	-5.9341	-6.4974 C
316 H316	0.7721	-6.5253	-5.7505 H
317 H317	-0.8463	-5.9866	-6.2943 H
318 H318	0.4383	-6.3847	-7.4758 H
319 C319	-3.0427	1.0815	4.3754 C
320 H320	-4.0326	1.4732	4.0734 H
321 O321	-2.8126	0.8282	5.5632 O
322 C322	-2.0533	0.8958	3.2593 C
323 H323	-1.8776	1.8515	2.7476 H
324 H324	-1.1088	0.5075	3.6463 H
325 H325	-2.4569	0.2038	2.5082 H
326 C326	0.3190	2.6863	-5.4536 C
327 H327	-0.0753	2.1245	-6.3216 H
328 O328	0.3587	3.9215	-5.4809 O
329 C329	0.7790	1.8462	-4.2952 C
330 H330	1.5715	1.1582	-4.6190 H
331 H331	1.1505	2.4798	-3.4871 H
332 H332	-0.0485	1.2254	-3.9269 H
333 C333	3.1699	4.5419	-2.7010 C
334 H334	2.6863	4.3119	-3.6693 H
335 O335	3.4849	5.7053	-2.4264 O
336 C336	3.3963	3.3636	-1.7958 C
337 H337	4.0246	2.6164	-2.2987 H
338 H338	3.8755	3.6812	-0.8673 H
339 H339	2.4405	2.8728	-1.5687 H
340 C340	4.7250	-5.5643	-4.1299 C
341 H341	5.7416	-5.9798	-4.2657 H
342 O342	3.7368	-6.2147	-4.4884 O
343 C343	4.6629	-4.2014	-3.4994 C
344 H344	5.2263	-3.4791	-4.1051 H
345 H345	3.6263	-3.8711	-3.4042 H
346 H346	5.1362	-4.2217	-2.5088 H
347 C347	4.5220	3.8314	-3.2801 C
348 H348	4.2297	4.8827	-3.0961 H
349 O349	5.7033	3.5473	-3.5080 O
350 C350	3.4015	2.8309	-3.2290 C
351 H351	2.6341	3.0852	-3.9722 H
352 H352	3.7789	1.8242	-3.4207 H
353 H353	2.9130	2.8610	-2.2460 H
@<TRIPOS>BOND
1 1 2 2
2 1 3 1
3 1 16 1
4 3 4 1
5 5 7 1
6 5 11 1
7 5 16 1
8 6 7 1
9 6 17 1
10 6 18 1
11 6 19 1
12 7 20 1
13 7 21 1
14 8 9 1
15 8 10 1
16 8 11 2
17 11 12 1
18 12 13 1
19 12 14 1
20 12 15 1
21 16 17 1
22 16 22 1
23 17 23 1
24 17 24 1
25 25 26 1
26 25 27 2
27 25 28 1
28 28 29 1
29 28 30 1
30 28 31 1
31 32 33 1
32 32 34 2
33 32 35 1
34 35 36 1
35 35 37 1
36 35 38 1
37 39 40 1
38 39 41 2
39 39 42 1
40 42 43 1
41 42 44 1
42 42 45 1
43 46 47 1
44 46 48 2
45 46 49 1
46 49 50 1
47 49 51 1
48 49 52 1
49 53 54 1
50 53 55 2
51 53 56 1
52 56 57 1
53 56 58 1
54 56 59 1
55 60 61 1
56 60 62 2
57 60 63 1
58 63 64 1
59 63 65 1
60 63 66 1
61 67 68 1
62 67 69 2
63 67 70 1
64 70 71 1
65 70 72 1
66 70 73 1
67 74 75 1
68 74 76 2
69 74 77 1
70 77 78 1
71 77 79 1
72 77 80 1
73 81 82 1
74 81 83 2
75 81 84 1
76 84 85 1
77 84 86 1
78 84 87 1
79 88 89 1
80 88 90 2
81 88 91 1
82 91 92 1
83 91 93 1
84 91 94 1
85 95 96 1
86 95 97 2
87 95 98 1
88 98 99 1
89 98 100 1
90 98 101 1
91 102 103 1
92 102 104 2
93 102 105 1
94 105 106 1
95 105 107 1
96 105 108 1
97 109 110 1
98 109 111 2
99 109 112 1
100 112 113 1
101 112 114 1
102 112 115 1
103 116 117 1
104 116 118 2
105 116 119 1
106 119 120 1
107 119 121 1
108 119 122 1
109 123 124 1
110 123 125 2
111 123 126 1
112 126 127 1
113 126 128 1
114 126 129 1
115 130 131 1
116 130 132 2
117 130 133 1
118 133 134 1
119 133 135 1
120 133 136 1
121 137 138 1
122 137 139 2
123 137 140 1
124 140 141 1
125 140 142 1
126 140 143 1
127 144 145 1
128 144 146 2
129 144 147 1
130 147 148 1
131 147 149 1
132 147 150 1
133 151 152 1
134 151 153 2
135 151 154 1
136 154 155 1
137 154 156 1
138 154 157 1
139 158 159 1
140 158 160 2
141 158 161 1
142 161 162 1
143 161 163 1
144 161 164 1
145 165 166 1
146 165 167 2
147 165 168 1
148 168 169 1
149 168 170 1
150 168 171 1
151 172 173 1
152 172 174 2
153 172 175 1
154 175 176 1
155 175 177 1
156 175 178 1
157 179 180 1
158 179 181 2
159 179 182 1
160 182 183 1
161 182 184 1
162 182 185 1
163 186 187 1
164 186 188 2
165 186 189 1
166 189 190 1
167 189 191 1
168 189 192 1
169 193 194 1
170 193 195 2
171 193 196 1
172 196 197 1
173 196 198 1
174 196 199 1
175 200 201 1
176 200 202 2
177 200 203 1
178 203 204 1
179 203 205 1
180 203 206 1
181 207 208 1
182 207 209 2
183 207 210 1
184 210 211 1
185 210 212 1
186 210 213 1
187 214 215 1
188 214 216 2
189 214 217 1
190 217 218 1
191 217 219 1
192 217 220 1
193 221 222 1
194 221 223 2
195 221 224 1
196 224 225 1
197 224 226 1
198 224 227 1
199 228 229 1
200 228 230 2
201 228 231 1
202 231 232 1
203 231 233 1
204 231 234 1
205 235 236 1
206 235 237 2
207 235 238 1
208 238 239 1
209 238 240 1
210 238 241 1
211 242 243 1
212 242 244 2
213 242 245 1
214 245 246 1
215 245 247 1
216 245 248 1
217 249 250 1
218 249 251 2
219 249 252 1
220 252 253 1
221 252 254 1
222 252 255 1
223 256 257 1
224 256 258 2
225 256 259 1
226 259 260 1
227 259 261 1
228 259 262 1
229 263 264 1
230 263 265 2
231 263 266 1
232 266 267 1
233 266 268 1
234 266 269 1
235 270 271 1
236 270 272 2
237 270 273 1
238 273 274 1
239 273 275 1
240 273 276 1
241 277 278 1
242 277 279 2
243 277 280 1
244 280 281 1
245 280 282 1
246 280 283 1
247 284 285 1
248 284 286 2
249 284 287 1
250 287 288 1
251 287 289 1
252 287 290 1
253 291 292 1
254 291 293 2
255 291 294 1
256 294 295 1
257 294 296 1
258 294 297 1
259 298 299 1
260 298 300 2
261 298 301 1
262 301 302 1
263 301 303 1
264 301 304 1
265 305 306 1
266 305 307 2
267 305 308 1
268 308 309 1
269 308 310 1
270 308 311 1
271 312 313 1
272 312 314 2
273 312 315 1
274 315 316 1
275 315 317 1
276 315 318 1
277 319 320 1
278 319 321 2
279 319 322 1
280 322 323 1
281 322 324 1
282 322 325 1
283 326 327 1
284 326 328 2
285 326 329 1
286 329 330 1
287 329 331 1
288 329 332 1
289 333 334 1
290 333 335 2
291 333 336 1
292 336 337 1
293 336 338 1
294 336 339 1
295 340 341 1
296 340 342 2
297 340 343 1
298 343 344 1
299 343 345 1
300 343 346 1
301 347 348 1
302 347 349 2
303 347 350 1
304 350 351 1
305 350 352 1
306 350 353 1
