@<TRIPOS>MOLECULE
Molecule Name
367 318
SMALL
NO_CHARGES

@<TRIPOS>ATOM
1 C1	0.0000	0.0000	0.0000 C
2 O2	-1.2245	0.0000	0.0000 O
3 O3	0.6872	1.2062	0.0000 O
4 H4	1.6592	1.0935	0.0238 H
5 N5	0.4452	-2.2653	0.9577 N
6 C6	-0.3140	-2.8085	3.1867 C
7 H7	-0.9656	-3.6059	2.8526 H
8 H8	-0.2634	-2.6373	4.2544 H
9 C9	0.4016	-2.0356	2.3397 C
10 C10	1.2664	-0.9022	2.8506 C
11 H11	0.9403	0.0764	2.4768 H
12 H12	1.2219	-0.8631	3.9408 H
13 H13	2.3169	-1.0390	2.5601 H
14 C14	0.5091	-3.4918	-1.0438 C
15 C15	-0.1554	-3.4560	0.3399 C
16 C16	0.8630	-1.2735	-0.0372 C
17 C17	0.6524	-1.9982	-1.4070 C
18 H18	1.4932	-3.9689	-0.9726 H
19 H19	-0.0822	-4.0386	-1.7840 H
20 H20	0.0759	-4.3383	0.9458 H
21 H21	-1.2506	-3.3699	0.2650 H
22 H22	1.9214	-1.0044	0.1040 H
23 H23	-0.2748	-1.6364	-1.8629 H
24 H24	1.4746	-1.7997	-2.1001 H
25 C25	1.9582	2.6320	-3.0136 C
26 H26	0.9258	2.7399	-2.6301 H
27 O27	2.7881	1.9692	-2.3812 O
28 C28	2.2415	3.3331	-4.3125 C
29 H29	2.0481	4.4094	-4.2107 H
30 H30	3.2787	3.1736	-4.6148 H
31 H31	1.5675	2.9628	-5.0964 H
32 C32	1.3174	1.9302	-3.1931 C
33 H33	1.1485	2.6387	-2.3600 H
34 O34	1.9839	0.9054	-3.0096 O
35 C35	0.6902	2.3132	-4.5042 C
36 H36	1.0687	3.2904	-4.8326 H
37 H37	0.9067	1.5610	-5.2657 H
38 H38	-0.3966	2.4174	-4.3867 H
39 C39	4.8901	3.0325	-0.0020 C
40 H40	4.6081	3.5268	0.9471 H
41 O41	4.2501	2.0550	-0.4056 O
42 C42	6.0672	3.6328	-0.7182 C
43 H43	6.9537	3.6128	-0.0703 H
44 H44	6.2739	3.0849	-1.6400 H
45 H45	5.8693	4.6873	-0.9520 H
46 C46	5.1778	1.4157	1.7860 C
47 H47	5.2671	0.4713	2.3558 H
48 O48	4.2257	1.5876	1.0165 O
49 C49	6.2701	2.4202	2.0248 C
50 H50	7.2458	1.9842	1.7721 H
51 H51	6.1024	3.3172	1.4249 H
52 H52	6.3093	2.6896	3.0886 H
53 C53	5.1558	0.8867	-0.5899 C
54 H54	5.5585	0.1251	0.1046 H
55 O55	4.1233	0.6575	-1.2298 O
56 C56	5.9444	2.1632	-0.6769 C
57 H57	6.9734	1.9503	-0.9961 H
58 H58	5.4770	2.8540	-1.3818 H
59 H59	6.0107	2.6343	0.3127 H
60 C60	2.3344	4.2357	-0.7337 C
61 H61	2.3644	4.3760	0.3635 H
62 O62	2.8913	3.2600	-1.2493 O
63 C63	1.5888	5.2922	-1.5000 C
64 H64	2.0349	6.2785	-1.3147 H
65 H65	1.6099	5.0749	-2.5700 H
66 H66	0.5478	5.3453	-1.1545 H
67 C67	3.1529	0.8295	-2.9201 C
68 H68	2.2396	0.5995	-3.5012 H
69 O69	3.6316	-0.0171	-2.1571 O
70 C70	3.7276	2.2014	-3.1361 C
71 H71	2.9832	2.9672	-2.8802 H
72 H72	4.6226	2.3413	-2.5262 H
73 H73	3.9772	2.3437	-4.1959 H
74 C74	5.4438	-1.9965	0.1565 C
75 H75	5.3145	-2.1702	1.2417 H
76 O76	4.6500	-1.2720	-0.4541 O
77 C77	6.6185	-2.6911	-0.4735 C
78 H78	6.5367	-3.7768	-0.3299 H
79 H79	6.6691	-2.4648	-1.5407 H
80 H80	7.5500	-2.3761	0.0152 H
81 C81	4.7204	0.6867	-1.7223 C
82 H82	4.0022	1.1748	-2.4083 H
83 O83	4.3677	-0.2855	-1.0452 O
84 C84	6.0973	1.2885	-1.6933 C
85 H85	6.0414	2.3454	-1.4003 H
86 H86	6.7366	0.7467	-0.9930 H
87 H87	6.5426	1.2610	-2.6967 H
88 C88	0.5597	2.4091	-3.2348 C
89 H89	-0.1195	1.7959	-2.6125 H
90 O90	1.7844	2.2960	-3.1117 O
91 C91	-0.1152	3.3465	-4.1966 C
92 H92	-0.7667	4.0424	-3.6512 H
93 H93	0.6271	3.9089	-4.7668 H
94 H94	-0.7593	2.7825	-4.8843 H
95 C95	5.2187	-1.5798	1.8476 C
96 H96	4.8533	-2.3395	2.5645 H
97 O97	4.6085	-1.3804	0.7913 O
98 C98	6.4659	-0.8494	2.2601 C
99 H99	7.2862	-1.5623	2.4179 H
100 H100	6.7530	-0.1224	1.4974 H
101 H101	6.3038	-0.3360	3.2171 H
102 C102	2.3151	2.9064	-2.2817 C
103 H103	1.4800	3.3094	-1.6776 H
104 O104	3.4280	2.7429	-1.7693 O
105 C105	1.9838	2.5923	-3.7137 C
106 H106	1.6247	3.4954	-4.2250 H
107 H107	2.8618	2.2014	-4.2323 H
108 H108	1.1697	1.8568	-3.7604 H
109 C109	4.4317	2.3370	2.4138 C
110 H110	4.6727	2.7605	1.4202 H
111 O111	3.5614	1.4659	2.5216 O
112 C112	5.2241	2.8942	3.5631 C
113 H113	5.0758	3.9801	3.6327 H
114 H114	4.9222	2.4216	4.5002 H
115 H115	6.2971	2.7309	3.3962 H
116 C116	5.8549	-0.7841	-0.1177 C
117 H117	6.3241	-0.1427	0.6524 H
118 O118	4.7103	-1.2192	0.0515 O
119 C119	6.6998	-1.0624	-1.3292 C
120 H120	7.6370	-1.5516	-1.0317 H
121 H121	6.1605	-1.6995	-2.0333 H
122 H122	6.9765	-0.1204	-1.8211 H
123 C123	-3.6819	0.4651	3.7174 C
124 H124	-2.7716	-0.1240	3.9388 H
125 O125	-4.2294	1.1195	4.6118 O
126 C126	-4.1654	0.3973	2.2959 C
127 H127	-4.3818	-0.6434	2.0199 H
128 H128	-5.0636	1.0052	2.1682 H
129 H129	-3.3810	0.7497	1.6130 H
130 C130	-3.6808	3.0128	2.3187 C
131 H131	-3.4108	2.1828	2.9991 H
132 O132	-3.9444	4.1298	2.7780 O
133 C133	-3.6958	2.6699	0.8554 C
134 H134	-4.4075	1.8553	0.6658 H
135 H135	-3.9710	3.5436	0.2609 H
136 H136	-2.7079	2.3068	0.5425 H
137 C137	-2.1630	4.6103	-0.9619 C
138 H138	-2.0392	5.0864	0.0294 H
139 O139	-1.7470	5.1779	-1.9782 O
140 C140	-2.8511	3.2741	-0.9556 C
141 H141	-3.8536	3.3678	-0.5172 H
142 H142	-2.9297	2.8798	-1.9709 H
143 H143	-2.2951	2.5661	-0.3267 H
144 C144	-3.0358	3.1642	0.8465 C
145 H145	-3.6098	2.3561	0.3544 H
146 O146	-3.2450	3.4387	2.0335 O
147 C147	-2.0274	3.8620	-0.0226 C
148 H148	-2.5244	4.3069	-0.8950 H
149 H149	-1.5099	4.6406	0.5418 H
150 H150	-1.2969	3.1387	-0.4087 H
151 C151	4.5694	-0.5800	-3.3529 C
152 H152	5.5872	-0.9032	-3.6431 H
153 O153	4.3204	-0.2996	-2.1750 O
154 C154	3.5678	-0.5176	-4.4718 C
155 H155	3.4686	-1.5036	-4.9452 H
156 H156	2.5955	-0.1910	-4.0968 H
157 H157	3.9144	0.1744	-5.2507 H
158 C158	-3.5463	-2.5375	-3.1298 C
159 H159	-4.5699	-2.9428	-3.2419 H
160 O160	-2.7371	-3.0965	-2.3810 O
161 C161	-3.2481	-1.3036	-3.9346 C
162 H162	-3.9436	-0.4983	-3.6628 H
163 H163	-2.2209	-0.9748	-3.7638 H
164 H164	-3.3984	-1.5047	-5.0037 H
165 C165	-4.4224	-3.7895	1.8083 C
166 H166	-4.8314	-3.1491	1.0038 H
167 O167	-3.4387	-4.5057	1.5905 O
168 C168	-5.1411	-3.7098	3.1259 C
169 H169	-6.1955	-3.9892	2.9984 H
170 H170	-4.6722	-4.3710	3.8577 H
171 H171	-5.1298	-2.6776	3.5003 H
172 C172	-3.6799	1.6117	-3.4103 C
173 H173	-4.7259	1.2591	-3.3314 H
174 O174	-3.0579	1.4746	-4.4697 O
175 C175	-3.1153	2.2422	-2.1682 C
176 H176	-3.1515	1.5298	-1.3332 H
177 H177	-2.0838	2.5595	-2.3356 H
178 H178	-3.7243	3.1071	-1.8735 H
179 C179	-3.0370	1.9485	-3.7303 C
180 H180	-1.9919	1.8158	-4.0689 H
181 O181	-3.9733	1.7098	-4.5013 O
182 C182	-3.2019	2.4230	-2.3137 C
183 H183	-2.6956	3.3880	-2.1774 H
184 H184	-4.2605	2.5257	-2.0657 H
185 H185	-2.7274	1.7155	-1.6208 H
186 C186	-4.5354	1.1947	3.1575 C
187 H187	-4.6247	0.1472	3.5029 H
188 O188	-4.5196	2.1187	3.9785 O
189 C189	-4.4401	1.3784	1.6688 C
190 H190	-5.3260	0.9533	1.1784 H
191 H191	-4.3552	2.4381	1.4190 H
192 H192	-3.5698	0.8358	1.2764 H
193 C193	-2.7832	3.5435	1.9710 C
194 H194	-3.8236	3.5586	2.3476 H
195 O195	-1.8504	3.8690	2.7139 O
196 C196	-2.6200	3.1109	0.5408 C
197 H197	-3.1915	3.7745	-0.1219 H
198 H198	-1.5661	3.1255	0.2549 H
199 H199	-3.0258	2.0998	0.4035 H
200 C200	-0.9665	5.0736	1.6452 C
201 H201	-1.4035	4.2905	2.2935 H
202 O202	-0.5799	6.1401	2.1362 O
203 C203	-0.8913	4.7341	0.1829 C
204 H204	-1.8951	4.5184	-0.2067 H
205 H205	-0.4490	5.5595	-0.3789 H
206 H206	-0.2925	3.8253	0.0366 H
207 C207	-5.1193	1.7248	1.6462 C
208 H208	-4.6042	1.9210	2.6058 H
209 O209	-6.3087	2.0315	1.5074 O
210 C210	-4.2770	1.0818	0.5803 C
211 H211	-3.8863	0.1195	0.9372 H
212 H212	-4.8631	0.9260	-0.3279 H
213 H213	-3.4072	1.7129	0.3546 H
214 C214	5.5553	-0.9981	-0.0202 C
215 H215	5.8123	-1.4256	0.9677 H
216 O216	4.5834	-1.4315	-0.6491 O
217 C217	6.4558	0.1052	-0.5008 C
218 H218	7.4914	-0.2543	-0.5664 H
219 H219	6.1298	0.4660	-1.4786 H
220 H220	6.4533	0.9349	0.2185 H
221 C221	-1.8628	2.5057	-3.6607 C
222 H222	-2.0560	1.4178	-3.7210 H
223 O223	-1.6700	3.1590	-4.6922 O
224 C224	-1.8572	3.0850	-2.2738 C
225 H225	-1.0931	2.5890	-1.6605 H
226 H226	-1.6599	4.1585	-2.3087 H
227 H227	-2.8234	2.9030	-1.7847 H
228 C228	5.7318	0.0506	1.6367 C
229 H229	5.3645	1.0591	1.9061 H
230 O230	4.9602	-0.9151	1.6542 O
231 C231	7.1861	-0.0297	1.2658 C
232 H232	7.8081	0.3266	2.0978 H
233 H233	7.4607	-1.0566	1.0157 H
234 H234	7.3945	0.6269	0.4107 H
235 C235	-2.1945	2.6383	-2.5063 C
236 H236	-2.4748	2.2280	-1.5175 H
237 O237	-3.0093	3.3045	-3.1544 O
238 C238	-0.7977	2.3240	-2.9638 C
239 H239	-0.6528	1.2366	-3.0149 H
240 H240	-0.6080	2.7660	-3.9442 H
241 H241	-0.0676	2.7072	-2.2386 H
242 C242	-4.6058	-3.5660	1.8479 C
243 H243	-4.5584	-2.5743	2.3367 H
244 O244	-3.5653	-4.1881	1.6063 O
245 C245	-5.9873	-4.0602	1.5219 C
246 H246	-6.4951	-3.3498	0.8560 H
247 H247	-5.9395	-5.0412	1.0443 H
248 H248	-6.5911	-4.1241	2.4368 H
249 C249	2.9317	-2.0417	-5.7248 C
250 H250	3.7351	-1.6088	-6.3507 H
251 O251	2.6873	-1.5629	-4.6117 O
252 C252	2.2020	-3.2096	-6.3270 C
253 H253	2.9074	-4.0212	-6.5501 H
254 H254	1.4303	-3.5714	-5.6443 H
255 H255	1.7434	-2.9172	-7.2809 H
256 C256	-5.3673	-1.0570	-1.1431 C
257 H257	-5.1442	-0.0466	-1.5354 H
258 O258	-6.3943	-1.6466	-1.4975 O
259 C259	-4.3530	-1.6167	-0.1855 C
260 H260	-4.2459	-0.9521	0.6821 H
261 H261	-4.6520	-2.6122	0.1493 H
262 H262	-3.3678	-1.6698	-0.6675 H
263 C263	-3.0465	-5.3277	-3.4823 C
264 H264	-3.0164	-6.0352	-2.6319 H
265 O265	-2.1886	-4.4435	-3.5835 O
266 C266	-4.1739	-5.5340	-4.4547 C
267 H267	-5.1388	-5.4539	-3.9365 H
268 H268	-4.1260	-4.7954	-5.2577 H
269 H269	-4.1255	-6.5452	-4.8799 H
270 C270	4.1612	-5.3569	0.8525 C
271 H271	3.3080	-6.0144	1.1065 H
272 O272	3.9611	-4.2617	0.3154 O
273 C273	5.5193	-5.8956	1.2050 C
274 H274	5.6896	-6.8534	0.6955 H
275 H275	6.2981	-5.1849	0.9205 H
276 H276	5.5780	-6.0955	2.2832 H
277 C277	-5.1292	2.0169	-1.3867 C
278 H278	-5.9824	1.3594	-1.1327 H
279 O279	-5.3293	3.1121	-1.9238 O
280 C280	-3.7711	1.4782	-1.0342 C
281 H281	-3.6008	0.5204	-1.5437 H
282 H282	-2.9923	2.1889	-1.3187 H
283 H283	-3.7124	1.2783	0.0440 H
284 C284	-3.9388	-3.2961	4.0169 C
285 H285	-3.1953	-2.5896	4.4325 H
286 O286	-3.5691	-4.3739	3.5376 O
287 C287	-5.3702	-2.8431	4.0870 C
288 H288	-5.4928	-1.8943	3.5477 H
289 H289	-6.0316	-3.5981	3.6568 H
290 H290	-5.6556	-2.6537	5.1303 H
291 C291	3.3737	2.8863	-2.7056 C
292 H292	4.4021	2.4797	-2.7464 H
293 O293	2.4214	2.1392	-2.4545 O
294 C294	3.2507	4.3605	-2.9714 C
295 H295	3.6510	4.5995	-3.9658 H
296 H296	2.2064	4.6740	-2.9110 H
297 H297	3.8487	4.9263	-2.2447 H
298 C298	2.8497	-4.6274	3.0869 C
299 H299	1.9150	-5.1823	2.8792 H
300 O300	3.2453	-3.7625	2.2974 O
301 C301	3.5575	-5.0067	4.3574 C
302 H302	3.8148	-6.0742	4.3420 H
303 H303	4.4650	-4.4121	4.4815 H
304 H304	2.8946	-4.8529	5.2192 H
305 C305	-0.3204	0.2274	6.5203 C
306 H306	0.2483	1.1552	6.3196 H
307 O307	0.2649	-0.8604	6.5673 O
308 C308	-1.7992	0.4065	6.7206 C
309 H309	-2.2470	0.8713	5.8320 H
310 H310	-2.2784	-0.5559	6.9122 H
311 H311	-1.9867	1.0863	7.5623 H
312 C312	4.8287	-1.0014	-2.9221 C
313 H313	4.5392	-0.0707	-2.3980 H
314 O314	4.1868	-2.0416	-2.7381 O
315 C315	6.0180	-0.8861	-3.8340 C
316 H316	6.8969	-0.5502	-3.2676 H
317 H317	6.2314	-1.8469	-4.3071 H
318 H318	5.8298	-0.1282	-4.6060 H
319 C319	-2.2530	-0.1967	6.2057 C
320 H320	-2.4161	0.8930	6.1023 H
321 O321	-1.1226	-0.6717	6.0488 O
322 C322	-3.4760	-1.0043	6.5387 C
323 H323	-4.2419	-0.8668	5.7637 H
324 H324	-3.2238	-2.0636	6.6216 H
325 H325	-3.9142	-0.6543	7.4828 H
326 C326	1.6559	-7.8836	0.6918 C
327 H327	1.3492	-8.4730	1.5767 H
328 O328	1.6374	-6.6483	0.7331 O
329 C329	2.0764	-8.6881	-0.5062 C
330 H330	1.2567	-9.3449	-0.8266 H
331 H331	2.3613	-8.0287	-1.3287 H
332 H332	2.9212	-9.3396	-0.2459 H
333 C333	-3.5628	-0.0145	4.3481 C
334 H334	-3.3561	0.9390	4.8703 H
335 O335	-4.3539	-0.8294	4.8360 O
336 C336	-2.8265	-0.2147	3.0532 C
337 H337	-1.7426	-0.1712	3.2245 H
338 H338	-3.0896	-1.1769	2.6087 H
339 H339	-3.0692	0.5946	2.3518 H
340 C340	-1.2420	-7.3839	2.6461 C
341 H341	-0.9049	-8.3646	2.2599 H
342 O342	-0.4483	-6.4388	2.7148 O
343 C343	-2.6856	-7.3136	3.0586 C
344 H344	-2.8908	-8.0548	3.8426 H
345 H345	-2.9302	-6.3144	3.4251 H
346 H346	-3.3339	-7.5639	2.2084 H
347 C347	4.0738	-4.7034	5.2334 C
348 H348	3.6780	-5.7163	5.0287 H
349 O349	5.2676	-4.4525	5.0336 O
350 C350	3.0715	-3.7106	5.7519 C
351 H351	2.6268	-4.0763	6.6870 H
352 H352	3.5466	-2.7427	5.9252 H
353 H353	2.2487	-3.5947	5.0339 H
354 C354	-4.5831	-0.6991	4.2212 C
355 H355	-4.8898	-1.2885	5.1062 H
356 O356	-4.6016	0.5362	4.2625 O
357 C357	-4.1626	-1.5036	3.0233 C
358 H358	-4.9824	-2.1604	2.7029 H
359 H359	-3.8778	-0.8441	2.2008 H
360 H360	-3.3179	-2.1551	3.2836 H
361 C361	2.4937	-1.9086	7.5909 C
362 H362	1.9706	-2.1249	8.5418 H
363 O363	3.0166	-0.8034	7.4087 O
364 C364	2.5073	-3.0309	6.5913 C
365 H365	1.4795	-3.3195	6.3336 H
366 H366	3.0420	-2.7313	5.6874 H
367 H367	2.9860	-3.9183	7.0263 H
@<TRIPOS>BOND
1 1 2 2
2 1 3 1
3 1 16 1
4 3 4 1
5 5 9 1
6 5 15 1
7 5 16 1
8 6 7 1
9 6 8 1
10 6 9 2
11 9 10 1
12 10 11 1
13 10 12 1
14 10 13 1
15 14 15 1
16 14 17 1
17 14 18 1
18 14 19 1
19 15 20 1
20 15 21 1
21 16 17 1
22 16 22 1
23 17 23 1
24 17 24 1
25 25 26 1
26 25 27 2
27 25 28 1
28 28 29 1
29 28 30 1
30 28 31 1
31 32 33 1
32 32 34 2
33 32 35 1
34 35 36 1
35 35 37 1
36 35 38 1
37 39 40 1
38 39 41 2
39 39 42 1
40 42 43 1
41 42 44 1
42 42 45 1
43 46 47 1
44 46 48 2
45 46 49 1
46 49 50 1
47 49 51 1
48 49 52 1
49 53 54 1
50 53 55 2
51 53 56 1
52 56 57 1
53 56 58 1
54 56 59 1
55 60 61 1
56 60 62 2
57 60 63 1
58 63 64 1
59 63 65 1
60 63 66 1
61 67 68 1
62 67 69 2
63 67 70 1
64 70 71 1
65 70 72 1
66 70 73 1
67 74 75 1
68 74 76 2
69 74 77 1
70 77 78 1
71 77 79 1
72 77 80 1
73 81 82 1
74 81 83 2
75 81 84 1
76 84 85 1
77 84 86 1
78 84 87 1
79 88 89 1
80 88 90 2
81 88 91 1
82 91 92 1
83 91 93 1
84 91 94 1
85 95 96 1
86 95 97 2
87 95 98 1
88 98 99 1
89 98 100 1
90 98 101 1
91 102 103 1
92 102 104 2
93 102 105 1
94 105 106 1
95 105 107 1
96 105 108 1
97 109 110 1
98 109 111 2
99 109 112 1
100 112 113 1
101 112 114 1
102 112 115 1
103 116 117 1
104 116 118 2
105 116 119 1
106 119 120 1
107 119 121 1
108 119 122 1
109 123 124 1
110 123 125 2
111 123 126 1
112 126 127 1
113 126 128 1
114 126 129 1
115 130 131 1
116 130 132 2
117 130 133 1
118 133 134 1
119 133 135 1
120 133 136 1
121 137 138 1
122 137 139 2
123 137 140 1
124 140 141 1
125 140 142 1
126 140 143 1
127 144 145 1
128 144 146 2
129 144 147 1
130 147 148 1
131 147 149 1
132 147 150 1
133 151 152 1
134 151 153 2
135 151 154 1
136 154 155 1
137 154 156 1
138 154 157 1
139 158 159 1
140 158 160 2
141 158 161 1
142 161 162 1
143 161 163 1
144 161 164 1
145 165 166 1
146 165 167 2
147 165 168 1
148 168 169 1
149 168 170 1
150 168 171 1
151 172 173 1
152 172 174 2
153 172 175 1
154 175 176 1
155 175 177 1
156 175 178 1
157 179 180 1
158 179 181 2
159 179 182 1
160 182 183 1
161 182 184 1
162 182 185 1
163 186 187 1
164 186 188 2
165 186 189 1
166 189 190 1
167 189 191 1
168 189 192 1
169 193 194 1
170 193 195 2
171 193 196 1
172 196 197 1
173 196 198 1
174 196 199 1
175 200 201 1
176 200 202 2
177 200 203 1
178 203 204 1
179 203 205 1
180 203 206 1
181 207 208 1
182 207 209 2
183 207 210 1
184 210 211 1
185 210 212 1
186 210 213 1
187 214 215 1
188 214 216 2
189 214 217 1
190 217 218 1
191 217 219 1
192 217 220 1
193 221 222 1
194 221 223 2
195 221 224 1
196 224 225 1
197 224 226 1
198 224 227 1
199 228 229 1
200 228 230 2
201 228 231 1
202 231 232 1
203 231 233 1
204 231 234 1
205 235 236 1
206 235 237 2
207 235 238 1
208 238 239 1
209 238 240 1
210 238 241 1
211 242 243 1
212 242 244 2
213 242 245 1
214 245 246 1
215 245 247 1
216 245 248 1
217 249 250 1
218 249 251 2
219 249 252 1
220 252 253 1
221 252 254 1
222 252 255 1
223 256 257 1
224 256 258 2
225 256 259 1
226 259 260 1
227 259 261 1
228 259 262 1
229 263 264 1
230 263 265 2
231 263 266 1
232 266 267 1
233 266 268 1
234 266 269 1
235 270 271 1
236 270 272 2
237 270 273 1
238 273 274 1
239 273 275 1
240 273 276 1
241 277 278 1
242 277 279 2
243 277 280 1
244 280 281 1
245 280 282 1
246 280 283 1
247 284 285 1
248 284 286 2
249 284 287 1
250 287 288 1
251 287 289 1
252 287 290 1
253 291 292 1
254 291 293 2
255 291 294 1
256 294 295 1
257 294 296 1
258 294 297 1
259 298 299 1
260 298 300 2
261 298 301 1
262 301 302 1
263 301 303 1
264 301 304 1
265 305 306 1
266 305 307 2
267 305 308 1
268 308 309 1
269 308 310 1
270 308 311 1
271 312 313 1
272 312 314 2
273 312 315 1
274 315 316 1
275 315 317 1
276 315 318 1
277 319 320 1
278 319 321 2
279 319 322 1
280 322 323 1
281 322 324 1
282 322 325 1
283 326 327 1
284 326 328 2
285 326 329 1
286 329 330 1
287 329 331 1
288 329 332 1
289 333 334 1
290 333 335 2
291 333 336 1
292 336 337 1
293 336 338 1
294 336 339 1
295 340 341 1
296 340 342 2
297 340 343 1
298 343 344 1
299 343 345 1
300 343 346 1
301 347 348 1
302 347 349 2
303 347 350 1
304 350 351 1
305 350 352 1
306 350 353 1
307 354 355 1
308 354 356 2
309 354 357 1
310 357 358 1
311 357 359 1
312 357 360 1
313 361 362 1
314 361 363 2
315 361 364 1
316 364 365 1
317 364 366 1
318 364 367 1
