@<TRIPOS>MOLECULE
Molecule Name
147 111
SMALL
NO_CHARGES

@<TRIPOS>ATOM
1 C1	0.0000	0.0000	0.0000 C
2 H2	-1.0835	0.0000	0.0000 H
3 C3	0.7457	1.1053	0.0000 C
4 H4	0.2726	2.0824	0.0000 H
5 H5	1.8291	1.0747	-0.0000 H
6 O6	0.5011	-1.2693	0.0000 O
7 H7	1.4727	-1.2210	-0.0000 H
8 C8	1.6476	-3.6915	-0.3782 C
9 H9	1.8999	-4.5541	-1.0154 H
10 H10	0.5965	-3.6327	-0.0531 H
11 O11	2.4798	-2.8540	-0.0530 O
12 C12	2.0413	-3.9291	-0.5824 C
13 H13	1.4013	-4.2284	-1.4277 H
14 H14	2.2675	-4.7237	0.1465 H
15 O15	2.4725	-2.7894	-0.4611 O
16 C16	1.5587	-3.2274	-1.6853 C
17 H17	0.8117	-3.9275	-1.2786 H
18 H18	1.5490	-3.1060	-2.7803 H
19 O19	2.3472	-2.6243	-0.9682 O
20 C20	2.8900	-2.3255	-1.7867 C
21 H21	2.2340	-1.6884	-2.4013 H
22 H22	3.8099	-2.6762	-2.2811 H
23 O23	2.6149	-2.6238	-0.6313 O
24 C24	0.7886	-4.1475	-0.3678 C
25 H25	0.3763	-3.1291	-0.4482 H
26 H26	0.0706	-4.9653	-0.5397 H
27 O27	1.9663	-4.3566	-0.1051 O
28 C28	3.9889	-0.9852	-1.1354 C
29 H29	4.5745	-0.5259	-0.3231 H
30 H30	4.5451	-1.6744	-1.7907 H
31 O31	2.7991	-0.7456	-1.2990 O
32 C32	-2.8051	-2.1731	-0.2681 C
33 H33	-2.4990	-2.5695	-1.2494 H
34 H34	-3.1801	-2.9201	0.4497 H
35 O35	-2.7334	-0.9818	0.0065 O
36 C36	-3.7473	-0.9756	-0.2697 C
37 H37	-4.6695	-1.0210	-0.8707 H
38 H38	-3.5715	-1.8358	0.3958 H
39 O39	-2.9696	-0.0320	-0.3368 O
40 C40	-1.1009	-2.2023	2.1769 C
41 H41	-0.5630	-3.1633	2.1479 H
42 H42	-2.0475	-2.1709	1.6141 H
43 O43	-0.6751	-1.2337	2.7935 O
44 C44	-1.3898	-3.2544	-1.2647 C
45 H45	-0.6954	-2.5595	-0.7661 H
46 H46	-1.7758	-4.0726	-0.6359 H
47 O47	-1.7113	-3.1260	-2.4394 O
48 C48	-3.8071	0.4192	-1.1350 C
49 H49	-4.8384	0.7451	-0.9257 H
50 H50	-3.6099	0.1043	-2.1722 H
51 O51	-2.9378	0.4077	-0.2724 O
52 C52	-4.1558	0.4617	-0.0359 C
53 H53	-4.8930	0.0680	-0.7537 H
54 H54	-4.5302	1.2360	0.6527 H
55 O55	-2.9976	0.0652	-0.0053 O
56 C56	0.9995	-2.4198	-2.3036 C
57 H57	0.1520	-2.0008	-1.7380 H
58 H58	0.7541	-2.8177	-3.3012 H
59 O59	2.1382	-2.4419	-1.8535 O
60 C60	-2.7752	-0.9111	-1.5104 C
61 H61	-1.9133	-0.5916	-2.1177 H
62 H62	-3.5713	-1.4408	-2.0576 H
63 O63	-2.8437	-0.6922	-0.3075 O
64 C64	0.3533	-4.4132	-0.5417 C
65 H65	-0.5148	-4.9814	-0.9122 H
66 H66	0.6788	-4.6575	0.4820 H
67 O67	0.9186	-3.5665	-1.2224 O
68 C68	0.3731	-1.2414	3.0501 C
69 H69	1.3568	-1.2407	3.5460 H
70 H70	-0.0102	-2.2318	2.7569 H
71 O71	-0.2526	-0.2101	2.8388 O
72 C72	-3.6019	-1.4505	0.3865 C
73 H73	-3.7143	-2.4752	0.7750 H
74 H74	-4.3559	-1.1378	-0.3534 H
75 O75	-2.6990	-0.7084	0.7527 O
76 C76	0.0637	-2.5749	-2.5064 C
77 H77	0.7683	-2.1067	-3.2122 H
78 H78	0.4374	-3.4721	-1.9875 H
79 O79	-1.0596	-2.1280	-2.3116 O
80 C80	-3.3324	1.0393	1.0466 C
81 H81	-4.2973	0.7088	1.4629 H
82 H82	-2.7831	1.7791	1.6505 H
83 O83	-2.8993	0.6129	-0.0166 O
84 C84	-1.1974	-3.0243	-1.4003 C
85 H85	-1.9111	-3.8175	-1.1261 H
86 H86	-0.4026	-2.8253	-0.6638 H
87 O87	-1.2819	-2.4051	-2.4535 O
88 C88	2.9986	-1.7391	-1.8766 C
89 H89	3.7006	-0.9199	-1.6532 H
90 H90	2.7404	-1.8664	-2.9401 H
91 O91	2.5362	-2.4601	-1.0014 O
92 C92	-3.4832	-0.8116	-1.7965 C
93 H93	-3.5645	-0.1566	-2.6785 H
94 H94	-4.2248	-1.6243	-1.7386 H
95 O95	-2.6258	-0.6474	-0.9377 O
96 C96	-0.0509	-0.7057	3.3350 C
97 H97	-0.2002	-0.5305	4.4124 H
98 H98	-0.7872	-1.3702	2.8555 H
99 O99	0.8720	-0.1958	2.7121 O
100 C100	-1.6502	-3.1121	-0.7994 C
101 H101	-2.5365	-3.1258	-0.1452 H
102 H102	-0.9873	-3.9884	-0.7192 H
103 O103	-1.4174	-2.1848	-1.5647 O
104 C104	-0.6119	-0.9478	2.8847 C
105 H105	-1.6549	-1.2548	2.7070 H
106 H106	0.0920	-1.7652	3.1085 H
107 O107	-0.2586	0.2238	2.8368 O
108 C108	0.0743	-1.1033	3.6924 C
109 H109	1.1019	-1.4941	3.6202 H
110 H110	-0.4479	-1.3130	4.6395 H
111 O111	-0.4521	-0.4776	2.7807 O
112 C112	0.1380	-0.7778	3.8227 C
113 H113	0.5905	-1.7741	3.9501 H
114 H114	0.2312	-0.1000	4.6862 H
115 O115	-0.4308	-0.4458	2.7901 O
116 C116	-0.8395	-0.2483	3.7913 C
117 H117	-0.3147	0.0155	4.7234 H
118 H118	-1.9381	-0.1754	3.8280 H
119 O119	-0.2415	-0.5992	2.7818 O
120 C120	-2.6457	1.3458	-1.5118 C
121 H121	-2.2093	1.0445	-2.4775 H
122 H122	-2.9164	2.4101	-1.4246 H
123 O123	-2.8183	0.5507	-0.5965 O
124 C124	0.2803	0.1538	3.9316 C
125 H125	-0.5996	-0.1159	4.5373 H
126 H126	0.9867	0.8536	4.4059 H
127 O127	0.4610	-0.2944	2.8063 O
128 C128	0.4072	-0.8351	2.9623 C
129 H129	-0.6175	-0.5942	3.2875 H
130 H130	0.6715	-1.9045	2.9785 H
131 O131	1.1996	0.0283	2.6067 O
132 C132	-1.8588	-2.7132	-2.0889 C
133 H133	-1.5342	-3.6693	-2.5296 H
134 H134	-2.8928	-2.6921	-1.7092 H
135 O135	-1.1196	-1.7388	-2.0255 O
136 C136	1.1396	-3.5582	-0.6986 C
137 H137	0.5981	-4.0085	-1.5459 H
138 H138	0.5084	-3.1822	0.1223 H
139 O139	2.3615	-3.4809	-0.6712 O
140 C140	1.6064	0.7053	-3.0237 C
141 H141	2.5673	0.5544	-3.5411 H
142 H142	1.0446	-0.2127	-2.7883 H
143 O143	1.1905	1.8191	-2.7300 O
144 C144	-0.1681	-0.8291	3.5962 C
145 H145	-0.8799	-1.1676	4.3659 H
146 H146	0.3152	0.1417	3.7906 H
147 O147	0.0701	-1.4879	2.5917 O
@<TRIPOS>BOND
1 1 2 1
2 1 3 2
3 1 6 1
4 3 4 1
5 3 5 1
6 6 7 1
7 8 9 1
8 8 10 1
9 8 11 2
10 12 13 1
11 12 14 1
12 12 15 2
13 16 17 1
14 16 18 1
15 16 19 2
16 20 21 1
17 20 22 1
18 20 23 2
19 24 25 1
20 24 26 1
21 24 27 2
22 28 29 1
23 28 30 1
24 28 31 2
25 32 33 1
26 32 34 1
27 32 35 2
28 36 37 1
29 36 38 1
30 36 39 2
31 40 41 1
32 40 42 1
33 40 43 2
34 44 45 1
35 44 46 1
36 44 47 2
37 48 49 1
38 48 50 1
39 48 51 2
40 52 53 1
41 52 54 1
42 52 55 2
43 56 57 1
44 56 58 1
45 56 59 2
46 60 61 1
47 60 62 1
48 60 63 2
49 64 65 1
50 64 66 1
51 64 67 2
52 68 69 1
53 68 70 1
54 68 71 2
55 72 73 1
56 72 74 1
57 72 75 2
58 76 77 1
59 76 78 1
60 76 79 2
61 80 81 1
62 80 82 1
63 80 83 2
64 84 85 1
65 84 86 1
66 84 87 2
67 88 89 1
68 88 90 1
69 88 91 2
70 92 93 1
71 92 94 1
72 92 95 2
73 96 97 1
74 96 98 1
75 96 99 2
76 100 101 1
77 100 102 1
78 100 103 2
79 104 105 1
80 104 106 1
81 104 107 2
82 108 109 1
83 108 110 1
84 108 111 2
85 112 113 1
86 112 114 1
87 112 115 2
88 116 117 1
89 116 118 1
90 116 119 2
91 120 121 1
92 120 122 1
93 120 123 2
94 124 125 1
95 124 126 1
96 124 127 2
97 128 129 1
98 128 130 1
99 128 131 2
100 132 133 1
101 132 134 1
102 132 135 2
103 136 137 1
104 136 138 1
105 136 139 2
106 140 141 1
107 140 142 1
108 140 143 2
109 144 145 1
110 144 146 1
111 144 147 2
