@<TRIPOS>MOLECULE
Molecule Name
207 156
SMALL
NO_CHARGES

@<TRIPOS>ATOM
1 C1	0.0000	0.0000	0.0000 C
2 H2	-1.0835	0.0000	0.0000 H
3 C3	0.7457	1.1053	0.0000 C
4 H4	0.2726	2.0824	0.0000 H
5 H5	1.8291	1.0747	-0.0000 H
6 O6	0.5011	-1.2693	0.0000 O
7 H7	1.4727	-1.2210	-0.0000 H
8 C8	1.8561	-4.5599	-0.7646 C
9 H9	2.1508	-5.6152	-0.8800 H
10 H10	0.7719	-4.3653	-0.7798 H
11 O11	2.6789	-3.6631	-0.6286 O
12 C12	2.9457	-2.4139	-2.6305 C
13 H13	3.1827	-3.2121	-3.3519 H
14 H14	2.1494	-1.7174	-2.9377 H
15 O15	3.5286	-2.3080	-1.5587 O
16 C16	5.0045	-0.7681	-1.8025 C
17 H17	5.8594	-1.0369	-1.1615 H
18 H18	5.2493	-0.5533	-2.8549 H
19 O19	3.8588	-0.7120	-1.3736 O
20 C20	5.4860	0.0902	0.0694 C
21 H21	6.2873	-0.6515	-0.0771 H
22 H22	5.7742	0.9971	0.6247 H
23 O23	4.3508	-0.0818	-0.3566 O
24 C24	4.1338	-2.3652	-1.9545 C
25 H25	4.1829	-3.4057	-1.5956 H
26 H26	4.2174	-2.2347	-3.0452 H
27 O27	3.9953	-1.4171	-1.1918 O
28 C28	2.6966	-0.8081	-3.0263 C
29 H29	2.7187	-0.5644	-4.1005 H
30 H30	1.9731	-1.5845	-2.7304 H
31 O31	3.4274	-0.2531	-2.2154 O
32 C32	1.9548	-3.9580	-0.3123 C
33 H33	1.2307	-4.2583	0.4618 H
34 H34	1.5942	-4.0245	-1.3512 H
35 O35	3.0852	-3.5759	-0.0364 O
36 C36	1.5472	-3.8355	-1.2926 C
37 H37	1.1164	-3.6658	-2.2923 H
38 H38	0.8184	-4.0044	-0.4839 H
39 O39	2.7556	-3.8362	-1.0936 O
40 C40	1.5922	-3.9760	-1.8463 C
41 H41	1.7120	-3.4966	-2.8309 H
42 H42	0.7616	-4.6953	-1.7663 H
43 O43	2.3329	-3.7259	-0.9036 O
44 C44	1.8490	-0.5508	-2.7083 C
45 H45	1.6598	-1.4740	-3.2789 H
46 H46	0.9940	0.1389	-2.6241 H
47 O47	2.9370	-0.3075	-2.2015 O
48 C48	1.0104	-1.3728	3.0054 C
49 H49	0.2983	-2.1790	3.2435 H
50 H50	0.5587	-0.4127	2.7086 H
51 O51	2.2230	-1.5330	3.0665 O
52 C52	4.2000	-2.1618	-1.5488 C
53 H53	4.0778	-2.6824	-2.5121 H
54 H54	4.6255	-2.7672	-0.7326 H
55 O55	3.8839	-0.9886	-1.3956 O
56 C56	3.7794	1.0921	-2.8258 C
57 H57	4.3943	1.9696	-3.0818 H
58 H58	3.0349	0.7969	-3.5823 H
59 O59	3.9144	0.4853	-1.7706 O
60 C60	1.1119	-1.4772	3.3031 C
61 H61	0.2057	-1.1342	2.7788 H
62 H62	0.9680	-2.3197	3.9982 H
63 O63	2.2060	-0.9567	3.1252 O
64 C64	0.6535	-2.2119	-3.0550 C
65 H65	0.4328	-1.1490	-3.2428 H
66 H66	-0.0836	-2.9275	-3.4531 H
67 O67	1.6515	-2.5739	-2.4446 O
68 C68	-0.8526	-2.6589	-2.0709 C
69 H69	-1.7333	-2.3018	-1.5136 H
70 H70	-0.2659	-3.4492	-1.5759 H
71 O71	-0.5461	-2.2075	-3.1673 O
72 C72	-1.0702	-3.7900	-2.2497 C
73 H73	-2.0095	-3.2158	-2.2068 H
74 H74	-0.2823	-3.4641	-1.5520 H
75 O75	-0.9125	-4.7278	-3.0213 O
76 C76	-1.5404	-2.8633	-2.0188 C
77 H77	-0.4833	-2.6368	-2.2308 H
78 H78	-1.7232	-3.7928	-1.4563 H
79 O79	-2.4514	-2.1308	-2.3839 O
80 C80	2.2930	-3.8951	-0.0905 C
81 H81	2.3149	-3.7372	0.9996 H
82 H82	1.4800	-4.5399	-0.4606 H
83 O83	3.1173	-3.3877	-0.8407 O
84 C84	1.8457	-0.3399	-3.6930 C
85 H85	1.5472	-1.3051	-4.1324 H
86 H86	1.8249	0.5212	-4.3800 H
87 O87	2.1782	-0.2313	-2.5194 O
88 C88	0.8349	-1.7248	3.4649 C
89 H89	0.0731	-2.4684	3.7484 H
90 H90	0.7301	-0.7343	3.9360 H
91 O91	1.7380	-1.9819	2.6787 O
92 C92	1.6036	-1.6575	3.4903 C
93 H93	1.3408	-2.3537	4.3027 H
94 H94	0.7953	-1.4351	2.7755 H
95 O95	2.7197	-1.1639	3.3886 O
96 C96	0.8594	-3.8992	-0.8795 C
97 H97	1.4014	-3.4805	-1.7424 H
98 H98	-0.2386	-3.8213	-0.9252 H
99 O99	1.4388	-4.4165	0.0674 O
100 C100	1.1307	-4.3608	-1.2623 C
101 H101	0.7437	-4.0420	-0.2813 H
102 H102	0.6172	-3.9316	-2.1375 H
103 O103	2.0689	-5.1402	-1.3726 O
104 C104	-0.2314	-4.2796	-1.8156 C
105 H105	-1.2312	-4.7131	-1.9775 H
106 H106	-0.1643	-3.1857	-1.9277 H
107 O107	0.7405	-4.9678	-1.5300 O
108 C108	-1.1102	-3.8347	-2.2921 C
109 H109	-0.7934	-3.3468	-1.3565 H
110 H110	-0.4413	-4.6270	-2.6645 H
111 O111	-2.1372	-3.5177	-2.8789 O
112 C112	-0.3666	-2.3565	3.0643 C
113 H113	-0.5099	-2.8357	2.0827 H
114 H114	-1.2147	-1.7540	3.4269 H
115 O115	0.6665	-2.4851	3.7093 O
116 C116	3.6470	1.1535	-2.8110 C
117 H117	2.6882	1.5968	-3.1237 H
118 H118	4.2005	0.6161	-3.5975 H
119 O119	4.0694	1.2516	-1.6657 O
120 C120	-3.9049	-2.1928	0.2938 C
121 H121	-4.6407	-2.8728	0.7520 H
122 H122	-3.6422	-2.4134	-0.7531 H
123 O123	-3.4121	-1.2543	0.9071 O
124 C124	1.0739	-4.5632	-1.9360 C
125 H125	1.1798	-3.5447	-1.5297 H
126 H126	0.0387	-4.9122	-2.0787 H
127 O127	2.0422	-5.2610	-2.2105 O
128 C128	3.3892	1.1915	-2.6446 C
129 H129	3.4788	2.0916	-2.0157 H
130 H130	3.1007	1.3713	-3.6926 H
131 O131	3.5963	0.0663	-2.2080 O
132 C132	-0.3979	-2.3230	2.8483 C
133 H133	-1.4225	-2.4733	2.4723 H
134 H134	-0.0029	-1.2989	2.7539 H
135 O135	0.2582	-3.2336	3.3385 O
136 C136	0.6263	-1.2432	2.9514 C
137 H137	-0.3738	-0.8763	3.2324 H
138 H138	0.6676	-2.2860	2.5984 H
139 O139	1.6254	-0.5390	3.0266 O
140 C140	0.6359	-1.7154	3.7229 C
141 H141	0.5637	-2.0624	2.6798 H
142 H142	0.2955	-0.6834	3.9047 H
143 O143	1.0658	-2.4290	4.6205 O
144 C144	-4.5633	-0.4211	-0.0326 C
145 H145	-4.2737	-0.5739	-1.0845 H
146 H146	-5.6445	-0.4670	0.1737 H
147 O147	-3.7384	-0.2141	0.8485 O
148 C148	-0.9554	-2.6122	-3.0853 C
149 H149	-0.7173	-3.5842	-2.6245 H
150 H150	-0.6418	-1.7253	-2.5119 H
151 O151	-1.5304	-2.5236	-4.1630 O
152 C152	-0.3979	-1.6373	-3.1565 C
153 H153	0.6875	-1.8141	-3.2220 H
154 H154	-0.8990	-2.0797	-2.2807 H
155 O155	-1.0069	-0.9922	-4.0008 O
156 C156	0.2263	-2.8338	-3.5535 C
157 H157	1.1576	-3.3689	-3.7987 H
158 H158	0.2112	-2.3319	-2.5729 H
159 O159	-0.7284	-2.7993	-4.3197 O
160 C160	-4.2718	-1.6297	1.0569 C
161 H161	-5.0258	-2.4256	0.9487 H
162 H162	-4.1784	-1.1981	2.0663 H
163 O163	-3.5834	-1.2500	0.1179 O
164 C164	-0.3806	-2.2222	2.7482 C
165 H165	0.6434	-2.5361	2.4902 H
166 H166	-1.1617	-2.9855	2.6039 H
167 O167	-0.6336	-1.0997	3.1673 O
168 C168	-0.3109	-0.6032	3.4082 C
169 H169	0.1303	-1.3844	2.7688 H
170 H170	-1.3826	-0.4060	3.2458 H
171 O171	0.3461	0.0054	4.2435 O
172 C172	0.7202	-1.3428	3.7188 C
173 H173	0.9600	-1.7352	2.7177 H
174 H174	-0.1573	-1.7949	4.2082 H
175 O175	1.3845	-0.4630	4.2519 O
176 C176	-4.7268	-1.0574	-1.1941 C
177 H177	-5.2664	-0.7848	-2.1152 H
178 H178	-5.1659	-1.8845	-0.6137 H
179 O179	-3.7071	-0.4795	-0.8392 O
180 C180	-0.1108	-2.1795	2.5733 C
181 H181	-0.4947	-3.0630	2.0387 H
182 H182	0.9566	-2.2151	2.8439 H
183 O183	-0.8229	-1.2219	2.8484 O
184 C184	2.4217	-3.0041	-3.4752 C
185 H185	3.2650	-3.7056	-3.5769 H
186 H186	1.8104	-2.8620	-4.3807 H
187 O187	2.1797	-2.4212	-2.4257 O
188 C188	-3.1043	-1.1405	-2.2938 C
189 H189	-2.8741	-2.2153	-2.2190 H
190 H190	-2.9589	-0.6920	-3.2895 H
191 O191	-3.4957	-0.4880	-1.3343 O
192 C192	-3.0755	0.9153	-2.8723 C
193 H193	-2.4719	1.7498	-3.2634 H
194 H194	-3.5491	0.2745	-3.6332 H
195 O195	-3.2110	0.7134	-1.6721 O
196 C196	-4.6918	0.3436	-1.7228 C
197 H197	-5.3480	-0.5401	-1.6743 H
198 H198	-5.1102	1.2174	-2.2475 H
199 O199	-3.5722	0.3539	-1.2267 O
200 C200	-2.8148	-0.4728	-2.5340 C
201 H201	-2.1250	-0.0926	-3.3043 H
202 H202	-3.0350	-1.5511	-2.5843 H
203 O203	-3.3041	0.2546	-1.6789 O
204 C204	0.9938	5.9316	-0.0330 C
205 H205	0.8768	6.8338	-0.6544 H
206 H206	1.4743	6.0885	0.9459 H
207 O207	0.6149	4.8282	-0.4054 O
@<TRIPOS>BOND
1 1 2 1
2 1 3 2
3 1 6 1
4 3 4 1
5 3 5 1
6 6 7 1
7 8 9 1
8 8 10 1
9 8 11 2
10 12 13 1
11 12 14 1
12 12 15 2
13 16 17 1
14 16 18 1
15 16 19 2
16 20 21 1
17 20 22 1
18 20 23 2
19 24 25 1
20 24 26 1
21 24 27 2
22 28 29 1
23 28 30 1
24 28 31 2
25 32 33 1
26 32 34 1
27 32 35 2
28 36 37 1
29 36 38 1
30 36 39 2
31 40 41 1
32 40 42 1
33 40 43 2
34 44 45 1
35 44 46 1
36 44 47 2
37 48 49 1
38 48 50 1
39 48 51 2
40 52 53 1
41 52 54 1
42 52 55 2
43 56 57 1
44 56 58 1
45 56 59 2
46 60 61 1
47 60 62 1
48 60 63 2
49 64 65 1
50 64 66 1
51 64 67 2
52 68 69 1
53 68 70 1
54 68 71 2
55 72 73 1
56 72 74 1
57 72 75 2
58 76 77 1
59 76 78 1
60 76 79 2
61 80 81 1
62 80 82 1
63 80 83 2
64 84 85 1
65 84 86 1
66 84 87 2
67 88 89 1
68 88 90 1
69 88 91 2
70 92 93 1
71 92 94 1
72 92 95 2
73 96 97 1
74 96 98 1
75 96 99 2
76 100 101 1
77 100 102 1
78 100 103 2
79 104 105 1
80 104 106 1
81 104 107 2
82 108 109 1
83 108 110 1
84 108 111 2
85 112 113 1
86 112 114 1
87 112 115 2
88 116 117 1
89 116 118 1
90 116 119 2
91 120 121 1
92 120 122 1
93 120 123 2
94 124 125 1
95 124 126 1
96 124 127 2
97 128 129 1
98 128 130 1
99 128 131 2
100 132 133 1
101 132 134 1
102 132 135 2
103 136 137 1
104 136 138 1
105 136 139 2
106 140 141 1
107 140 142 1
108 140 143 2
109 144 145 1
110 144 146 1
111 144 147 2
112 148 149 1
113 148 150 1
114 148 151 2
115 152 153 1
116 152 154 1
117 152 155 2
118 156 157 1
119 156 158 1
120 156 159 2
121 160 161 1
122 160 162 1
123 160 163 2
124 164 165 1
125 164 166 1
126 164 167 2
127 168 169 1
128 168 170 1
129 168 171 2
130 172 173 1
131 172 174 1
132 172 175 2
133 176 177 1
134 176 178 1
135 176 179 2
136 180 181 1
137 180 182 1
138 180 183 2
139 184 185 1
140 184 186 1
141 184 187 2
142 188 189 1
143 188 190 1
144 188 191 2
145 192 193 1
146 192 194 1
147 192 195 2
148 196 197 1
149 196 198 1
150 196 199 2
151 200 201 1
152 200 202 1
153 200 203 2
154 204 205 1
155 204 206 1
156 204 207 2
