@<TRIPOS>MOLECULE
Molecule Name
332 288
SMALL
NO_CHARGES

@<TRIPOS>ATOM
1 C1	0.0000	0.0000	0.0000 C
2 O2	-1.2307	0.0000	0.0000 O
3 O3	0.7406	1.1694	0.0000 O
4 H4	0.1452	1.9503	-0.0180 H
5 N5	0.2909	-2.4542	0.3689 N
6 C6	-1.0495	-3.7549	1.9028 C
7 H7	-1.3992	-4.4403	1.1412 H
8 H8	-1.3921	-3.9368	2.9134 H
9 C9	-0.2461	-2.6991	1.6382 C
10 C10	0.1637	-1.7363	2.7320 C
11 H11	-0.2344	-0.7287	2.5613 H
12 H12	-0.2230	-2.0813	3.6932 H
13 H13	1.2551	-1.6555	2.8153 H
14 C14	1.2878	-2.9970	-1.6915 C
15 C15	0.1574	-3.4117	-0.7359 C
16 C16	0.9264	-1.2058	-0.0459 C
17 C17	1.3529	-1.4636	-1.5322 C
18 H18	2.2306	-3.4555	-1.3719 H
19 H19	1.0986	-3.2967	-2.7267 H
20 H20	0.2807	-4.4311	-0.3553 H
21 H21	-0.8312	-3.3484	-1.2182 H
22 H22	1.8025	-0.9674	0.5690 H
23 H23	0.6376	-0.9866	-2.2121 H
24 H24	2.3396	-1.0435	-1.7397 H
25 C25	-2.6432	2.2212	1.0221 C
26 H26	-2.9533	1.6850	0.1050 H
27 O27	-1.6506	2.9577	1.0036 O
28 C28	-3.5012	1.9807	2.2325 C
29 H29	-3.5177	0.9102	2.4769 H
30 H30	-3.1239	2.5465	3.0870 H
31 H31	-4.5386	2.2743	2.0243 H
32 C32	-1.5970	4.1538	1.1667 C
33 H33	-1.7916	3.3258	1.8747 H
34 O34	-1.0110	3.9331	0.1009 O
35 C35	-2.0885	5.5056	1.6027 C
36 H36	-1.6259	5.7854	2.5586 H
37 H37	-1.8551	6.2591	0.8475 H
38 H38	-3.1731	5.4764	1.7722 H
39 C39	-1.1818	4.9117	-0.1451 C
40 H40	-1.6540	4.7301	0.8390 H
41 O41	-0.6366	3.9828	-0.7518 O
42 C42	-1.2622	6.3253	-0.6494 C
43 H43	-0.7859	7.0090	0.0660 H
44 H44	-0.7732	6.4127	-1.6219 H
45 H45	-2.3118	6.6367	-0.7346 H
46 C46	-2.0444	4.0791	-1.3948 C
47 H47	-2.6641	4.1704	-0.4825 H
48 O48	-1.0155	3.3941	-1.3792 O
49 C49	-2.5478	4.8301	-2.5955 C
50 H50	-2.6248	5.9013	-2.3659 H
51 H51	-1.8784	4.6843	-3.4459 H
52 H52	-3.5579	4.4889	-2.8581 H
53 C53	-1.4919	2.8421	2.0444 C
54 H54	-2.0726	2.1839	1.3705 H
55 O55	-0.4873	3.4274	1.6247 O
56 C56	-2.0149	2.9514	3.4493 C
57 H57	-2.0463	1.9591	3.9188 H
58 H58	-1.3840	3.6178	4.0413 H
59 H59	-3.0454	3.3304	3.4401 H
60 C60	-0.9932	4.2316	-1.7316 C
61 H61	-0.2820	3.7655	-2.4398 H
62 O62	-1.1890	3.7201	-0.6234 O
63 C63	-1.6652	5.4837	-2.2209 C
64 H64	-2.2216	5.2772	-3.1449 H
65 H65	-2.3464	5.8737	-1.4616 H
66 H66	-0.9127	6.2445	-2.4675 H
67 C67	-2.6863	2.7273	0.7341 C
68 H68	-2.2040	2.7153	1.7300 H
69 O69	-1.9939	2.7492	-0.2896 O
70 C70	-4.1893	2.7150	0.7440 C
71 H71	-4.5704	3.5849	1.2955 H
72 H72	-4.5784	2.7280	-0.2763 H
73 H73	-4.5562	1.8223	1.2676 H
74 C74	-1.6247	2.9187	1.8817 C
75 H75	-0.6868	2.5208	2.3137 H
76 O76	-1.7077	3.1272	0.6662 O
77 C77	-2.7335	3.1693	2.8650 C
78 H78	-2.4045	3.8841	3.6310 H
79 H79	-3.6166	3.5591	2.3543 H
80 H80	-2.9907	2.2392	3.3892 H
81 C81	-0.5381	3.7049	2.3359 C
82 H82	-0.2462	2.7999	2.9020 H
83 O83	-0.1026	3.8887	1.1937 O
84 C84	-1.4684	4.6430	3.0525 C
85 H85	-1.0111	4.9850	3.9905 H
86 H86	-1.7026	5.5041	2.4230 H
87 H87	-2.3957	4.1211	3.3238 H
88 C88	-1.1268	4.7376	0.0056 C
89 H89	-0.7668	4.8705	-1.0323 H
90 O90	-0.5110	4.0028	0.7859 O
91 C91	-2.3742	5.4980	0.3592 C
92 H92	-3.1970	5.2038	-0.3059 H
93 H93	-2.6557	5.3091	1.3973 H
94 H94	-2.2154	6.5743	0.2098 H
95 C95	0.6752	3.8945	2.4880 C
96 H96	1.7059	4.1353	2.1651 H
97 O97	-0.1529	3.4876	1.6654 O
98 C98	0.3917	4.0990	3.9498 C
99 H99	0.5790	5.1448	4.2280 H
100 H100	-0.6437	3.8381	4.1786 H
101 H101	1.0700	3.4836	4.5557 H
102 C102	1.1343	3.6917	-2.3297 C
103 H103	0.6754	3.8762	-3.3197 H
104 O104	0.4635	3.8289	-1.3005 O
105 C105	2.5792	3.2787	-2.3542 C
106 H106	3.1841	4.0502	-2.8493 H
107 H107	2.9482	3.1185	-1.3389 H
108 H108	2.6989	2.3578	-2.9401 H
109 C109	2.0208	4.0290	1.4134 C
110 H110	2.6507	4.0125	0.5037 H
111 O111	0.8465	3.6467	1.3611 O
112 C112	2.6956	4.5355	2.6573 C
113 H113	3.0583	5.5600	2.4997 H
114 H114	2.0037	4.5169	3.5021 H
115 H115	3.5753	3.9197	2.8870 H
116 C116	-0.6571	3.1968	-2.7254 C
117 H117	0.3366	3.5571	-3.0529 H
118 O118	-0.9782	3.2625	-1.5335 O
119 C119	-1.5360	2.6472	-3.8137 C
120 H120	-1.0378	1.8049	-4.3121 H
121 H121	-2.4923	2.3168	-3.4025 H
122 H122	-1.7092	3.4125	-4.5818 H
123 C123	0.0596	4.0305	1.8641 C
124 H124	-0.8029	4.2857	2.5088 H
125 O125	-0.0287	4.1459	0.6366 O
126 C126	1.2880	3.5537	2.5872 C
127 H127	1.0542	2.6589	3.1792 H
128 H128	2.0854	3.3258	1.8767 H
129 H129	1.6315	4.3206	3.2941 H
130 C130	-3.1537	2.2786	-0.3916 C
131 H131	-2.8276	2.1181	-1.4368 H
132 O132	-2.7956	3.2908	0.2209 O
133 C133	-4.0303	1.2020	0.1843 C
134 H134	-3.5096	0.2355	0.1555 H
135 H135	-4.3033	1.4414	1.2142 H
136 H136	-4.9391	1.0905	-0.4220 H
137 C137	1.8051	4.3131	-0.7502 C
138 H138	1.8436	4.6001	0.3178 H
139 O139	0.7802	3.8052	-1.2189 O
140 C140	3.0557	4.5860	-1.5380 C
141 H141	3.9063	4.0525	-1.0930 H
142 H142	2.9291	4.2733	-2.5767 H
143 H143	3.2988	5.6562	-1.5018 H
144 C144	0.1658	4.1717	-2.7356 C
145 H145	-0.2375	5.1802	-2.5238 H
146 O146	0.0507	3.2697	-1.8982 O
147 C147	0.8338	4.0107	-4.0723 C
148 H148	1.6703	4.7164	-4.1638 H
149 H149	1.2001	2.9893	-4.1961 H
150 H150	0.1278	4.2499	-4.8786 H
151 C151	-0.1037	3.5787	2.5350 C
152 H152	-1.1590	3.2533	2.4656 H
153 O153	0.6090	3.5901	1.5251 O
154 C154	0.3582	3.9856	3.9062 C
155 H155	0.2327	3.1518	4.6098 H
156 H156	1.4064	4.2907	3.8817 H
157 H157	-0.2583	4.8129	4.2822 H
158 C158	0.8027	3.4151	-3.0106 C
159 H159	1.3596	4.3549	-3.1876 H
160 O160	0.2344	3.2258	-1.9293 O
161 C161	0.8030	2.4389	-4.1534 C
162 H162	1.8332	2.1579	-4.4097 H
163 H163	0.2327	1.5448	-3.8925 H
164 H164	0.3698	2.9050	-5.0483 H
165 C165	1.4131	4.1641	-1.0308 C
166 H166	1.3027	4.0570	-2.1266 H
167 O167	0.4109	4.2147	-0.3090 O
168 C168	2.8276	4.2385	-0.5281 C
169 H169	3.3473	5.0899	-0.9876 H
170 H170	2.8420	4.3428	0.5589 H
171 H171	3.3799	3.3353	-0.8196 H
172 C172	0.9558	3.4532	-2.9807 C
173 H173	0.5680	4.2924	-3.5889 H
174 O174	0.5912	3.3180	-1.8074 O
175 C175	1.9204	2.5386	-3.6822 C
176 H176	2.7907	3.1073	-4.0360 H
177 H177	2.2501	1.7430	-3.0106 H
178 H178	1.4466	2.0994	-4.5701 H
179 C179	0.9710	4.9363	0.8433 C
180 H180	0.4348	4.7736	1.7976 H
181 O181	1.2202	3.9794	0.1015 O
182 C182	1.3489	6.3610	0.5493 C
183 H183	1.9907	6.7541	1.3490 H
184 H184	1.8713	6.4284	-0.4073 H
185 H185	0.4508	6.9924	0.5247 H
186 C186	-3.0422	-1.3874	-2.7055 C
187 H187	-3.8634	-1.7231	-2.0440 H
188 O188	-1.9421	-1.9495	-2.6616 O
189 C189	-3.3750	-0.2399	-3.6173 C
190 H190	-3.6889	0.6320	-3.0278 H
191 H191	-2.5111	0.0237	-4.2311 H
192 H192	-4.2209	-0.5054	-4.2652 H
193 C193	0.0231	3.2609	-2.6247 C
194 H194	0.0759	2.8146	-3.6360 H
195 O195	-0.8673	2.9146	-1.8403 O
196 C196	1.0844	4.2779	-2.3110 C
197 H197	1.0376	5.1065	-3.0301 H
198 H198	0.9564	4.6637	-1.2974 H
199 H199	2.0807	3.8271	-2.4113 H
200 C200	0.7173	3.8835	2.2569 C
201 H201	0.0044	3.1772	2.7233 H
202 O202	1.1738	3.6509	1.1320 O
203 C203	1.0607	5.0929	3.0806 C
204 H204	1.4961	4.7847	4.0405 H
205 H205	1.7666	5.7319	2.5457 H
206 H206	0.1509	5.6620	3.3134 H
207 C207	5.2010	-0.6745	0.9158 C
208 H208	5.5571	0.0902	1.6321 H
209 O209	4.0539	-1.1254	1.0100 O
210 C210	6.1956	-1.0922	-0.1308 C
211 H211	7.0989	-1.4955	0.3462 H
212 H212	5.7617	-1.8459	-0.7914 H
213 H213	6.5108	-0.2215	-0.7211 H
214 C214	-5.2445	-0.7746	-1.2070 C
215 H215	-5.0205	0.0379	-1.9241 H
216 O216	-6.4162	-1.0341	-0.9108 O
217 C217	-4.0478	-1.4971	-0.6548 C
218 H218	-3.3837	-0.7896	-0.1406 H
219 H219	-4.3606	-2.2788	0.0408 H
220 H220	-3.4650	-1.9420	-1.4722 H
221 C221	5.1092	-0.4867	1.1476 C
222 H222	5.7335	-1.1848	0.5582 H
223 O223	3.9336	-0.7709	1.4026 O
224 C224	5.7929	0.7777	1.5871 C
225 H225	6.1574	1.3333	0.7128 H
226 H226	5.1061	1.4043	2.1601 H
227 H227	6.6723	0.5381	2.1995 H
228 C228	-5.1652	1.2992	0.5577 C
229 H229	-5.9081	0.5436	0.2387 H
230 O230	-5.3531	2.4958	0.3107 O
231 C231	-3.9652	0.7591	1.2839 C
232 H232	-3.4350	0.0352	0.6507 H
233 H233	-3.2883	1.5704	1.5599 H
234 H234	-4.2814	0.2191	2.1862 H
235 C235	-4.4301	1.7801	2.2423 C
236 H236	-3.6526	1.8904	3.0220 H
237 O237	-5.6229	1.7192	2.5607 O
238 C238	-3.9229	1.7148	0.8289 C
239 H239	-3.2316	0.8691	0.7146 H
240 H240	-4.7542	1.6066	0.1291 H
241 H241	-3.3545	2.6232	0.5893 H
242 C242	-5.1206	-2.3387	-1.5034 C
243 H243	-5.4052	-1.9922	-0.4917 H
244 O244	-5.9798	-2.7930	-2.2673 O
245 C245	-3.6622	-2.2109	-1.8437 C
246 H246	-3.0559	-2.7809	-1.1271 H
247 H247	-3.4726	-2.5745	-2.8559 H
248 H248	-3.3461	-1.1625	-1.7628 H
249 C249	3.4565	-3.2656	3.4955 C
250 H250	2.8538	-3.9636	2.8839 H
251 O251	3.4816	-2.0613	3.2178 O
252 C252	4.2049	-3.8901	4.6397 C
253 H253	4.8900	-4.6627	4.2659 H
254 H254	4.7697	-3.1319	5.1863 H
255 H255	3.5040	-4.3907	5.3208 H
256 C256	-2.9374	2.8852	2.4951 C
257 H257	-2.3281	2.3088	3.2170 H
258 O258	-3.9688	3.4543	2.8699 O
259 C259	-2.4175	2.9091	1.0850 C
260 H260	-2.3395	1.8859	0.6939 H
261 H261	-3.0775	3.4977	0.4442 H
262 H262	-1.4056	3.3349	1.0629 H
263 C263	-5.5507	-3.0778	1.8647 C
264 H264	-5.3903	-2.0866	1.3997 H
265 O265	-6.4232	-3.2234	2.7282 O
266 C266	-4.6514	-4.1762	1.3710 C
267 H267	-3.6000	-3.9084	1.5410 H
268 H268	-4.8783	-5.1146	1.8813 H
269 H269	-4.7740	-4.3063	0.2875 H
270 C270	-0.9589	-2.5058	6.9317 C
271 H271	-1.6529	-3.3574	6.7986 H
272 O272	-0.2490	-2.1320	5.9912 O
273 C273	-0.9612	-1.8778	8.2972 C
274 H274	-0.7002	-2.6261	9.0574 H
275 H275	-0.2505	-1.0496	8.3382 H
276 H276	-1.9673	-1.5134	8.5435 H
277 C277	3.3288	-0.6462	4.7473 C
278 H278	2.4071	-0.4895	5.3395 H
279 O279	3.3251	-1.4290	3.7906 O
280 C280	4.5264	0.1441	5.1948 C
281 H281	4.7702	-0.0979	6.2379 H
282 H282	5.3865	-0.0713	4.5573 H
283 H283	4.3031	1.2188	5.1627 H
284 C284	-2.3011	3.7182	3.1654 C
285 H285	-3.3116	3.5436	3.5813 H
286 O286	-1.5299	4.5080	3.7217 O
287 C287	-1.9715	2.9420	1.9212 C
288 H288	-2.6910	3.1796	1.1263 H
289 H289	-0.9598	3.1747	1.5822 H
290 H290	-2.0573	1.8645	2.1146 H
291 C291	-3.5741	-5.3259	-0.8339 C
292 H292	-4.1574	-4.6870	-0.1439 H
293 O293	-2.4286	-4.9979	-1.1631 O
294 C294	-4.2723	-6.5691	-1.3093 C
295 H295	-5.2037	-6.3043	-1.8274 H
296 H296	-3.6264	-7.1366	-1.9825 H
297 H297	-4.5535	-7.1954	-0.4523 H
298 C298	1.1910	-5.9161	3.6503 C
299 H299	0.2324	-5.5220	3.2626 H
300 O300	1.6144	-5.5440	4.7504 O
301 C301	1.8946	-6.8984	2.7563 C
302 H302	2.1076	-6.4373	1.7826 H
303 H303	2.8269	-7.2335	3.2156 H
304 H304	1.2468	-7.7636	2.5622 H
305 C305	-1.5978	-0.4621	5.5593 C
306 H306	-1.6721	-0.4686	4.4552 H
307 O307	-0.8042	-1.2176	6.1315 O
308 C308	-2.5087	0.5048	6.2624 C
309 H309	-3.5557	0.2871	6.0126 H
310 H310	-2.3691	0.4442	7.3438 H
311 H311	-2.3079	1.5290	5.9212 H
312 C312	3.4930	3.1455	-2.4242 C
313 H313	3.8607	3.5436	-1.4593 H
314 O314	3.0378	3.9141	-3.2786 O
315 C315	3.5947	1.6550	-2.5890 C
316 H316	3.0287	1.1479	-1.7963 H
317 H317	3.2114	1.3513	-3.5655 H
318 H318	4.6400	1.3342	-2.4868 H
319 C319	-5.5786	-4.2464	3.3672 C
320 H320	-5.7831	-3.7975	2.3766 H
321 O321	-6.2528	-3.9150	4.3488 O
322 C322	-4.4586	-5.2481	3.4039 C
323 H323	-3.5241	-4.7821	3.0638 H
324 H324	-4.3275	-5.6380	4.4154 H
325 H325	-4.6694	-6.0757	2.7136 H
326 C326	-3.2977	-4.6099	6.3838 C
327 H327	-3.4330	-5.5083	5.7520 H
328 O328	-4.0851	-4.3778	7.3080 O
329 C329	-2.1234	-3.7414	6.0290 C
330 H330	-2.2111	-3.3934	4.9911 H
331 H331	-2.0666	-2.8822	6.7007 H
332 H332	-1.1927	-4.3208	6.0914 H
@<TRIPOS>BOND
1 1 2 2
2 1 3 1
3 1 16 1
4 3 4 1
5 5 9 1
6 5 15 1
7 5 16 1
8 6 7 1
9 6 8 1
10 6 9 2
11 9 10 1
12 10 11 1
13 10 12 1
14 10 13 1
15 14 15 1
16 14 17 1
17 14 18 1
18 14 19 1
19 15 20 1
20 15 21 1
21 16 17 1
22 16 22 1
23 17 23 1
24 17 24 1
25 25 26 1
26 25 27 2
27 25 28 1
28 28 29 1
29 28 30 1
30 28 31 1
31 32 33 1
32 32 34 2
33 32 35 1
34 35 36 1
35 35 37 1
36 35 38 1
37 39 40 1
38 39 41 2
39 39 42 1
40 42 43 1
41 42 44 1
42 42 45 1
43 46 47 1
44 46 48 2
45 46 49 1
46 49 50 1
47 49 51 1
48 49 52 1
49 53 54 1
50 53 55 2
51 53 56 1
52 56 57 1
53 56 58 1
54 56 59 1
55 60 61 1
56 60 62 2
57 60 63 1
58 63 64 1
59 63 65 1
60 63 66 1
61 67 68 1
62 67 69 2
63 67 70 1
64 70 71 1
65 70 72 1
66 70 73 1
67 74 75 1
68 74 76 2
69 74 77 1
70 77 78 1
71 77 79 1
72 77 80 1
73 81 82 1
74 81 83 2
75 81 84 1
76 84 85 1
77 84 86 1
78 84 87 1
79 88 89 1
80 88 90 2
81 88 91 1
82 91 92 1
83 91 93 1
84 91 94 1
85 95 96 1
86 95 97 2
87 95 98 1
88 98 99 1
89 98 100 1
90 98 101 1
91 102 103 1
92 102 104 2
93 102 105 1
94 105 106 1
95 105 107 1
96 105 108 1
97 109 110 1
98 109 111 2
99 109 112 1
100 112 113 1
101 112 114 1
102 112 115 1
103 116 117 1
104 116 118 2
105 116 119 1
106 119 120 1
107 119 121 1
108 119 122 1
109 123 124 1
110 123 125 2
111 123 126 1
112 126 127 1
113 126 128 1
114 126 129 1
115 130 131 1
116 130 132 2
117 130 133 1
118 133 134 1
119 133 135 1
120 133 136 1
121 137 138 1
122 137 139 2
123 137 140 1
124 140 141 1
125 140 142 1
126 140 143 1
127 144 145 1
128 144 146 2
129 144 147 1
130 147 148 1
131 147 149 1
132 147 150 1
133 151 152 1
134 151 153 2
135 151 154 1
136 154 155 1
137 154 156 1
138 154 157 1
139 158 159 1
140 158 160 2
141 158 161 1
142 161 162 1
143 161 163 1
144 161 164 1
145 165 166 1
146 165 167 2
147 165 168 1
148 168 169 1
149 168 170 1
150 168 171 1
151 172 173 1
152 172 174 2
153 172 175 1
154 175 176 1
155 175 177 1
156 175 178 1
157 179 180 1
158 179 181 2
159 179 182 1
160 182 183 1
161 182 184 1
162 182 185 1
163 186 187 1
164 186 188 2
165 186 189 1
166 189 190 1
167 189 191 1
168 189 192 1
169 193 194 1
170 193 195 2
171 193 196 1
172 196 197 1
173 196 198 1
174 196 199 1
175 200 201 1
176 200 202 2
177 200 203 1
178 203 204 1
179 203 205 1
180 203 206 1
181 207 208 1
182 207 209 2
183 207 210 1
184 210 211 1
185 210 212 1
186 210 213 1
187 214 215 1
188 214 216 2
189 214 217 1
190 217 218 1
191 217 219 1
192 217 220 1
193 221 222 1
194 221 223 2
195 221 224 1
196 224 225 1
197 224 226 1
198 224 227 1
199 228 229 1
200 228 230 2
201 228 231 1
202 231 232 1
203 231 233 1
204 231 234 1
205 235 236 1
206 235 237 2
207 235 238 1
208 238 239 1
209 238 240 1
210 238 241 1
211 242 243 1
212 242 244 2
213 242 245 1
214 245 246 1
215 245 247 1
216 245 248 1
217 249 250 1
218 249 251 2
219 249 252 1
220 252 253 1
221 252 254 1
222 252 255 1
223 256 257 1
224 256 258 2
225 256 259 1
226 259 260 1
227 259 261 1
228 259 262 1
229 263 264 1
230 263 265 2
231 263 266 1
232 266 267 1
233 266 268 1
234 266 269 1
235 270 271 1
236 270 272 2
237 270 273 1
238 273 274 1
239 273 275 1
240 273 276 1
241 277 278 1
242 277 279 2
243 277 280 1
244 280 281 1
245 280 282 1
246 280 283 1
247 284 285 1
248 284 286 2
249 284 287 1
250 287 288 1
251 287 289 1
252 287 290 1
253 291 292 1
254 291 293 2
255 291 294 1
256 294 295 1
257 294 296 1
258 294 297 1
259 298 299 1
260 298 300 2
261 298 301 1
262 301 302 1
263 301 303 1
264 301 304 1
265 305 306 1
266 305 307 2
267 305 308 1
268 308 309 1
269 308 310 1
270 308 311 1
271 312 313 1
272 312 314 2
273 312 315 1
274 315 316 1
275 315 317 1
276 315 318 1
277 319 320 1
278 319 321 2
279 319 322 1
280 322 323 1
281 322 324 1
282 322 325 1
283 326 327 1
284 326 328 2
285 326 329 1
286 329 330 1
287 329 331 1
288 329 332 1
