@<TRIPOS>MOLECULE
Molecule Name
353 306
SMALL
NO_CHARGES

@<TRIPOS>ATOM
1 C1	0.0000	0.0000	0.0000 C
2 O2	-1.2224	0.0000	0.0000 O
3 O3	0.6889	1.2091	0.0000 O
4 H4	1.6619	1.0986	0.0171 H
5 N5	0.2228	-2.4953	0.2052 N
6 C6	-1.2833	-3.8880	1.4812 C
7 H7	-1.5604	-4.5006	0.6328 H
8 H8	-1.7339	-4.1436	2.4315 H
9 C9	-0.4480	-2.8287	1.3905 C
10 C10	-0.1454	-1.9642	2.5953 C
11 H11	-0.5315	-0.9457	2.4721 H
12 H12	-0.6190	-2.3887	3.4829 H
13 H13	0.9334	-1.8988	2.7894 H
14 C14	1.4256	-2.9048	-1.7756 C
15 C15	0.1962	-3.3662	-0.9773 C
16 C16	0.9088	-1.2350	-0.0444 C
17 C17	1.4871	-1.3889	-1.4950 C
18 H18	2.3246	-3.4016	-1.3936 H
19 H19	1.3444	-3.1226	-2.8446 H
20 H20	0.2672	-4.4128	-0.6630 H
21 H21	-0.7346	-3.2485	-1.5541 H
22 H22	1.7231	-1.0765	0.6818 H
23 H23	0.8497	-0.8507	-2.2057 H
24 H24	2.4984	-0.9793	-1.5771 H
25 C25	5.0060	1.2056	0.5723 C
26 H26	5.3391	1.2115	-0.4830 H
27 O27	3.8001	1.2403	0.8417 O
28 C28	6.1049	1.1540	1.5964 C
29 H29	6.7740	2.0165	1.4760 H
30 H30	5.6873	1.1514	2.6054 H
31 H31	6.7173	0.2547	1.4480 H
32 C32	3.8236	0.3632	2.7769 C
33 H33	3.6678	-0.4109	3.5522 H
34 O34	3.3788	0.1957	1.6358 O
35 C35	4.5895	1.5777	3.2212 C
36 H36	5.5830	1.2849	3.5862 H
37 H37	4.6954	2.2857	2.3965 H
38 H38	4.0739	2.0631	4.0605 H
39 C39	4.9971	1.8672	-0.1284 C
40 H40	5.4204	1.0636	0.5038 H
41 O41	3.7756	1.9393	-0.3035 O
42 C42	5.9990	2.8157	-0.7245 C
43 H43	6.7181	2.2645	-1.3451 H
44 H44	5.4958	3.5724	-1.3301 H
45 H45	6.5766	3.3042	0.0715 H
46 C46	3.2018	2.1636	1.9336 C
47 H47	2.5490	2.8541	1.3665 H
48 O48	3.0241	0.9425	1.8606 O
49 C49	4.2724	2.8191	2.7602 C
50 H50	3.8198	3.5042	3.4895 H
51 H51	4.8662	2.0664	3.2830 H
52 H52	4.9262	3.4253	2.1192 H
53 C53	4.5260	1.4364	-1.5789 C
54 H54	4.2116	0.7313	-2.3718 H
55 O55	3.7099	1.8243	-0.7353 O
56 C56	5.9683	1.8569	-1.6230 C
57 H57	6.1927	2.3357	-2.5856 H
58 H58	6.1897	2.5494	-0.8082 H
59 H59	6.6207	0.9769	-1.5471 H
60 C60	2.5755	2.6928	-2.1732 C
61 H61	1.7235	3.2453	-1.7334 H
62 O62	2.6700	1.4706	-2.0142 O
63 C63	3.5585	3.5285	-2.9443 C
64 H64	3.9816	4.3077	-2.2964 H
65 H65	4.3622	2.9046	-3.3410 H
66 H66	3.0499	4.0443	-3.7696 H
67 C67	3.5284	3.8631	0.4362 C
68 H68	4.0112	3.7839	1.4287 H
69 O69	3.1457	2.8442	-0.1499 O
70 C70	3.3890	5.2584	-0.1050 C
71 H71	4.3768	5.7307	-0.1901 H
72 H72	2.9043	5.2422	-1.0835 H
73 H73	2.8015	5.8752	0.5879 H
74 C74	4.5596	0.7697	0.9004 C
75 H75	5.1169	0.3160	0.0589 H
76 O76	3.4734	0.2954	1.2518 O
77 C77	5.2163	1.9586	1.5440 C
78 H78	5.3750	2.7508	0.8002 H
79 H79	4.6001	2.3401	2.3608 H
80 H80	6.2071	1.6810	1.9276 H
81 C81	3.9687	3.4257	-1.1134 C
82 H82	4.9465	3.0647	-0.7418 H
83 O83	2.9327	2.8159	-0.8254 O
84 C84	4.0174	4.6667	-1.9599 C
85 H85	4.6529	4.4989	-2.8398 H
86 H86	3.0129	4.9499	-2.2813 H
87 H87	4.4705	5.4918	-1.3946 H
88 C88	2.8977	2.4097	-2.4775 C
89 H89	3.6468	2.9954	-1.9114 H
90 O90	2.7237	1.2131	-2.2208 O
91 C91	2.1489	3.1698	-3.5361 C
92 H92	2.8516	3.5866	-4.2700 H
93 H93	1.4341	2.5172	-4.0418 H
94 H94	1.6188	4.0200	-3.0867 H
95 C95	2.3583	3.5929	1.0370 C
96 H96	1.6309	3.6972	0.2096 H
97 O97	2.4609	2.5188	1.6401 O
98 C98	3.1696	4.8206	1.3428 C
99 H99	2.5062	5.6565	1.6023 H
100 H100	3.8578	4.6282	2.1685 H
101 H101	3.7361	5.1298	0.4544 H
102 C102	3.6927	-2.6863	2.6323 C
103 H103	3.9447	-3.5295	1.9613 H
104 O104	3.4097	-1.5803	2.1583 O
105 C105	3.7254	-2.9983	4.1022 C
106 H106	4.7246	-3.3507	4.3912 H
107 H107	3.4650	-2.1133	4.6867 H
108 H108	3.0241	-3.8116	4.3313 H
109 C109	-3.6211	-1.5686	-0.7466 C
110 H110	-3.9242	-1.8843	0.2698 H
111 O111	-2.7813	-2.2234	-1.3743 O
112 C112	-4.2942	-0.3291	-1.2658 C
113 H113	-4.0964	0.5173	-0.5946 H
114 H114	-3.9371	-0.0923	-2.2703 H
115 H115	-5.3830	-0.4706	-1.2850 H
116 C116	4.5110	-0.0560	2.1780 C
117 H117	5.0437	-0.3739	3.0944 H
118 O118	3.8458	-0.8739	1.5326 O
119 C119	4.6656	1.3932	1.8106 C
120 H120	5.7270	1.6347	1.6648 H
121 H121	4.1094	1.6177	0.8981 H
122 H122	4.3051	2.0307	2.6289 H
123 C123	0.5837	4.1818	-0.2538 C
124 H124	0.5680	4.2810	0.8483 H
125 O125	1.6100	4.4555	-0.8861 O
126 C126	-0.6982	3.7063	-0.8780 C
127 H127	-1.5172	4.3944	-0.6295 H
128 H128	-0.5927	3.6377	-1.9628 H
129 H129	-0.9747	2.7245	-0.4713 H
130 C130	3.2920	-1.6446	4.0058 C
131 H131	2.8036	-2.6373	4.0338 H
132 O132	2.8989	-0.7827	3.2117 O
133 C133	4.4229	-1.4533	4.9772 C
134 H134	5.2063	-2.2015	4.7966 H
135 H135	4.8439	-0.4503	4.8810 H
136 H136	4.0681	-1.6077	6.0049 H
137 C137	-5.4234	0.9478	-1.0566 C
138 H138	-5.8253	0.8446	-0.0307 H
139 O139	-5.9915	1.6808	-1.8739 O
140 C140	-4.1823	0.1514	-1.3475 C
141 H141	-4.3727	-0.9177	-1.1836 H
142 H142	-3.8572	0.3127	-2.3774 H
143 H143	-3.3784	0.4395	-0.6572 H
144 C144	-0.6232	-2.2054	-5.0028 C
145 H145	-1.2735	-2.9994	-4.5891 H
146 O146	0.6009	-2.2592	-4.8396 O
147 C147	-1.3347	-1.1092	-5.7452 C
148 H148	-2.0621	-0.6170	-5.0859 H
149 H149	-0.6193	-0.3726	-6.1172 H
150 H150	-1.9025	-1.5294	-6.5859 H
151 C151	-3.5161	0.1946	2.3747 C
152 H152	-4.1445	-0.5349	1.8293 H
153 O153	-2.6067	-0.2006	3.1128 O
154 C154	-3.8566	1.6403	2.1443 C
155 H155	-4.8980	1.8338	2.4344 H
156 H156	-3.1894	2.2864	2.7187 H
157 H157	-3.7751	1.8817	1.0762 H
158 C158	4.8604	-1.1531	0.5402 C
159 H159	4.5120	-0.8888	-0.4764 H
160 O160	4.0867	-1.0726	1.5008 O
161 C161	6.2930	-1.5973	0.6371 C
162 H162	6.9592	-0.8075	0.2650 H
163 H163	6.5497	-1.8371	1.6711 H
164 H164	6.4592	-2.4775	0.0019 H
165 C165	-2.8736	3.2700	0.4997 C
166 H166	-3.1839	2.9510	-0.5134 H
167 O167	-3.6738	3.2117	1.4401 O
168 C168	-1.4565	3.7570	0.6180 C
169 H169	-1.2941	4.6123	-0.0514 H
170 H170	-1.2375	4.0496	1.6471 H
171 H171	-0.7592	2.9700	0.3016 H
172 C172	-2.4422	-1.0141	-3.3294 C
173 H173	-3.3916	-0.9060	-2.7712 H
174 O174	-1.4242	-1.4091	-2.7501 O
175 C175	-2.5050	-0.6527	-4.7870 C
176 H176	-2.8289	0.3901	-4.9039 H
177 H177	-1.5286	-0.7887	-5.2569 H
178 H178	-3.2508	-1.2755	-5.2986 H
179 C179	2.5091	-5.5940	1.3530 C
180 H180	1.8211	-5.5855	2.2197 H
181 O181	2.0573	-5.5613	0.2028 O
182 C182	3.9728	-5.6465	1.6904 C
183 H183	4.1917	-6.5451	2.2826 H
184 H184	4.5751	-5.6515	0.7795 H
185 H185	4.2485	-4.7833	2.3106 H
186 C186	2.3349	0.6343	2.9626 C
187 H187	1.2906	0.7876	3.2949 H
188 O188	2.8221	-0.5018	2.9540 O
189 C189	3.0687	1.8773	2.5435 C
190 H190	3.0983	2.5961	3.3732 H
191 H191	4.0868	1.6336	2.2324 H
192 H192	2.5379	2.3686	1.7173 H
193 C193	-3.4271	3.7152	0.6557 C
194 H194	-4.3490	3.7087	0.0435 H
195 O195	-2.9086	4.7882	0.9838 O
196 C196	-2.8917	2.3620	1.0317 C
197 H197	-2.6725	1.7782	0.1277 H
198 H198	-1.9853	2.4629	1.6323 H
199 H199	-3.6479	1.8002	1.5960 H
200 C200	1.1868	5.3118	-1.5639 C
201 H201	0.3659	5.8233	-1.0263 H
202 O202	2.2101	5.9344	-1.8693 O
203 C203	0.9511	3.8598	-1.8723 C
204 H204	0.0467	3.7458	-2.4848 H
205 H205	1.8081	3.4373	-2.4011 H
206 H206	0.7776	3.2999	-0.9438 H
207 C207	-4.6590	-2.6174	-1.6983 C
208 H208	-4.5385	-3.7043	-1.5283 H
209 O209	-5.5626	-2.2014	-2.4321 O
210 C210	-3.6686	-1.7385	-0.9873 C
211 H211	-2.6460	-1.9992	-1.2913 H
212 H212	-3.8611	-0.6870	-1.2107 H
213 H213	-3.7284	-1.9024	0.0969 H
214 C214	-2.5747	-2.0957	5.7958 C
215 H215	-1.8428	-1.3511	6.1625 H
216 O216	-2.2139	-2.9910	5.0236 O
217 C217	-3.9798	-1.9236	6.3009 C
218 H218	-4.3627	-0.9329	6.0216 H
219 H219	-4.6311	-2.6981	5.8903 H
220 H220	-3.9952	-1.9716	7.3978 H
221 C221	1.0871	3.9111	3.3458 C
222 H222	0.6042	4.8647	3.0596 H
223 O223	2.1037	3.9178	4.0489 O
224 C224	0.4224	2.6681	2.8240 C
225 H225	0.3850	2.6922	1.7267 H
226 H226	0.9630	1.7784	3.1535 H
227 H227	-0.6169	2.6198	3.1754 H
228 C228	-0.7679	-4.0198	6.3519 C
229 H229	-0.0468	-4.8260	6.1181 H
230 O230	-1.3051	-3.3846	5.4377 O
231 C231	-1.0196	-3.7823	7.8145 C
232 H232	-0.0798	-3.5295	8.3232 H
233 H233	-1.7405	-2.9736	7.9520 H
234 H234	-1.3986	-4.6987	8.2861 H
235 C235	-4.9756	-2.8605	-0.8565 C
236 H236	-5.1556	-1.9721	-0.2217 H
237 O237	-5.8722	-3.6948	-1.0236 O
238 C238	-3.6048	-2.9518	-1.4662 C
239 H239	-2.8406	-2.9609	-0.6774 H
240 H240	-3.5160	-3.8549	-2.0737 H
241 H241	-3.4082	-2.0681	-2.0876 H
242 C242	-2.8490	2.7158	3.1632 C
243 H243	-3.8969	2.4076	3.3407 H
244 O244	-2.4112	3.7499	3.6798 O
245 C245	-2.0481	1.8026	2.2780 C
246 H246	-2.5275	1.7145	1.2939 H
247 H247	-1.0309	2.1816	2.1581 H
248 H248	-2.0173	0.7922	2.7071 H
249 C249	-0.9768	-7.1301	-1.5096 C
250 H250	-1.1247	-6.5644	-2.4491 H
251 O251	-0.3419	-6.6264	-0.5763 O
252 C252	-1.5911	-8.5015	-1.4777 C
253 H253	-1.1829	-9.1171	-2.2904 H
254 H254	-1.3971	-8.9851	-0.5179 H
255 H255	-2.6743	-8.4340	-1.6447 H
256 C256	3.6794	-1.4308	4.3450 C
257 H257	4.2121	-1.7487	5.2615 H
258 O258	3.0142	-2.2487	3.6997 O
259 C259	3.8340	0.0184	3.9777 C
260 H260	4.8954	0.2598	3.8319 H
261 H261	3.2778	0.2429	3.0651 H
262 H262	3.4735	0.6558	4.7959 H
263 C263	-0.6522	-2.6878	6.4425 C
264 H264	-0.1671	-1.7044	6.2938 H
265 O265	-1.2910	-3.2093	5.5217 O
266 C266	-0.4694	-3.2992	7.8034 C
267 H267	-0.8651	-2.6263	8.5758 H
268 H268	-0.9786	-4.2636	7.8607 H
269 H269	0.5994	-3.4329	8.0168 H
270 C270	-4.3247	-4.8697	4.0550 C
271 H271	-5.2208	-4.5454	4.6175 H
272 O272	-3.2765	-4.2188	4.1306 O
273 C273	-4.4946	-6.1152	3.2311 C
274 H274	-5.3004	-5.9760	2.4980 H
275 H275	-3.5652	-6.3604	2.7127 H
276 H276	-4.7919	-6.9550	3.8731 H
277 C277	-2.8767	1.3953	3.2912 C
278 H278	-3.8803	1.3518	2.8271 H
279 O279	-2.1844	0.3741	3.3675 O
280 C280	-2.4559	2.7474	3.7950 C
281 H281	-3.1718	3.1107	4.5443 H
282 H282	-1.4576	2.6978	4.2349 H
283 H283	-2.4611	3.4752	2.9728 H
284 C284	-4.6593	-0.8195	2.4816 C
285 H285	-4.4466	-1.7819	2.9848 H
286 O286	-5.7755	-0.2988	2.5864 O
287 C287	-3.5184	-0.2345	1.6972 C
288 H288	-3.1949	-0.9387	0.9191 H
289 H289	-3.8157	0.7101	1.2368 H
290 H290	-2.6542	-0.0691	2.3541 H
291 C291	2.4003	-5.6051	0.9945 C
292 H292	1.5332	-5.9891	0.4242 H
293 O293	2.5955	-4.3875	1.0805 O
294 C294	3.2751	-6.6530	1.6235 C
295 H295	3.6714	-7.3268	0.8522 H
296 H296	4.1018	-6.1869	2.1637 H
297 H297	2.6862	-7.2723	2.3131 H
298 C298	1.0143	-4.3122	5.2411 C
299 H299	1.8740	-4.8678	4.8208 H
300 O300	1.1853	-3.1994	5.7514 O
301 C301	-0.3156	-5.0049	5.1377 C
302 H302	-0.2775	-5.9742	5.6525 H
303 H303	-1.1032	-4.3876	5.5750 H
304 H304	-0.5517	-5.2138	4.0858 H
305 C305	-5.0589	-0.7270	-1.1751 C
306 H306	-5.4351	-0.4448	-0.1734 H
307 O307	-5.8468	-1.1072	-2.0485 O
308 C308	-3.5724	-0.6100	-1.3637 C
309 H309	-3.0484	-1.2422	-0.6344 H
310 H310	-3.2909	-0.9069	-2.3762 H
311 H311	-3.2484	0.4227	-1.1783 H
312 C312	-5.7684	-3.6912	1.6791 C
313 H313	-5.7898	-2.7728	1.0622 H
314 O314	-6.5113	-3.7953	2.6616 O
315 C315	-4.7983	-4.7481	1.2309 C
316 H316	-3.7772	-4.3439	1.2219 H
317 H317	-4.8441	-5.6149	1.8936 H
318 H318	-5.0257	-5.0576	0.2022 H
319 C319	-5.6351	-3.5438	1.4423 C
320 H320	-5.2006	-2.9975	2.3010 H
321 O321	-6.7855	-3.2929	1.0662 O
322 C322	-4.7378	-4.5694	0.8081 C
323 H323	-4.4412	-5.3223	1.5505 H
324 H324	-5.2451	-5.0571	-0.0269 H
325 H325	-3.8140	-4.0943	0.4521 H
326 C326	-1.0307	-8.2781	1.4312 C
327 H327	-1.1283	-7.8818	2.4598 H
328 O328	-0.1025	-9.0436	1.1475 O
329 C329	-2.0821	-7.8198	0.4598 C
330 H330	-2.0740	-6.7243	0.3836 H
331 H331	-1.9090	-8.2576	-0.5256 H
332 H332	-3.0793	-8.1050	0.8204 H
333 C333	-2.3697	-1.5226	-5.1004 C
334 H334	-3.4560	-1.5411	-4.8899 H
335 O335	-1.9516	-1.8154	-6.2262 O
336 C336	-1.4943	-1.1269	-3.9445 C
337 H337	-1.6462	-1.8157	-3.1028 H
338 H338	-0.4432	-1.1353	-4.2406 H
339 H339	-1.7694	-0.1254	-3.5880 H
340 C340	-5.1478	-4.3383	-0.8648 C
341 H341	-5.0691	-5.1794	-0.1500 H
342 O342	-6.2180	-3.7336	-0.9949 O
343 C343	-3.8916	-4.0169	-1.6250 C
344 H344	-3.5615	-4.8943	-2.1970 H
345 H345	-4.0596	-3.1780	-2.3037 H
346 H346	-3.0806	-3.7702	-0.9270 H
347 C347	-3.9748	-3.0427	-4.3438 C
348 H348	-4.0889	-2.0637	-4.8469 H
349 O349	-4.4286	-4.0658	-4.8686 O
350 C350	-3.2511	-3.0119	-3.0268 C
351 H351	-3.7739	-2.3492	-2.3242 H
352 H352	-3.1845	-4.0164	-2.6036 H
353 H353	-2.2421	-2.5998	-3.1600 H
@<TRIPOS>BOND
1 1 2 2
2 1 3 1
3 1 16 1
4 3 4 1
5 5 9 1
6 5 15 1
7 5 16 1
8 6 7 1
9 6 8 1
10 6 9 2
11 9 10 1
12 10 11 1
13 10 12 1
14 10 13 1
15 14 15 1
16 14 17 1
17 14 18 1
18 14 19 1
19 15 20 1
20 15 21 1
21 16 17 1
22 16 22 1
23 17 23 1
24 17 24 1
25 25 26 1
26 25 27 2
27 25 28 1
28 28 29 1
29 28 30 1
30 28 31 1
31 32 33 1
32 32 34 2
33 32 35 1
34 35 36 1
35 35 37 1
36 35 38 1
37 39 40 1
38 39 41 2
39 39 42 1
40 42 43 1
41 42 44 1
42 42 45 1
43 46 47 1
44 46 48 2
45 46 49 1
46 49 50 1
47 49 51 1
48 49 52 1
49 53 54 1
50 53 55 2
51 53 56 1
52 56 57 1
53 56 58 1
54 56 59 1
55 60 61 1
56 60 62 2
57 60 63 1
58 63 64 1
59 63 65 1
60 63 66 1
61 67 68 1
62 67 69 2
63 67 70 1
64 70 71 1
65 70 72 1
66 70 73 1
67 74 75 1
68 74 76 2
69 74 77 1
70 77 78 1
71 77 79 1
72 77 80 1
73 81 82 1
74 81 83 2
75 81 84 1
76 84 85 1
77 84 86 1
78 84 87 1
79 88 89 1
80 88 90 2
81 88 91 1
82 91 92 1
83 91 93 1
84 91 94 1
85 95 96 1
86 95 97 2
87 95 98 1
88 98 99 1
89 98 100 1
90 98 101 1
91 102 103 1
92 102 104 2
93 102 105 1
94 105 106 1
95 105 107 1
96 105 108 1
97 109 110 1
98 109 111 2
99 109 112 1
100 112 113 1
101 112 114 1
102 112 115 1
103 116 117 1
104 116 118 2
105 116 119 1
106 119 120 1
107 119 121 1
108 119 122 1
109 123 124 1
110 123 125 2
111 123 126 1
112 126 127 1
113 126 128 1
114 126 129 1
115 130 131 1
116 130 132 2
117 130 133 1
118 133 134 1
119 133 135 1
120 133 136 1
121 137 138 1
122 137 139 2
123 137 140 1
124 140 141 1
125 140 142 1
126 140 143 1
127 144 145 1
128 144 146 2
129 144 147 1
130 147 148 1
131 147 149 1
132 147 150 1
133 151 152 1
134 151 153 2
135 151 154 1
136 154 155 1
137 154 156 1
138 154 157 1
139 158 159 1
140 158 160 2
141 158 161 1
142 161 162 1
143 161 163 1
144 161 164 1
145 165 166 1
146 165 167 2
147 165 168 1
148 168 169 1
149 168 170 1
150 168 171 1
151 172 173 1
152 172 174 2
153 172 175 1
154 175 176 1
155 175 177 1
156 175 178 1
157 179 180 1
158 179 181 2
159 179 182 1
160 182 183 1
161 182 184 1
162 182 185 1
163 186 187 1
164 186 188 2
165 186 189 1
166 189 190 1
167 189 191 1
168 189 192 1
169 193 194 1
170 193 195 2
171 193 196 1
172 196 197 1
173 196 198 1
174 196 199 1
175 200 201 1
176 200 202 2
177 200 203 1
178 203 204 1
179 203 205 1
180 203 206 1
181 207 208 1
182 207 209 2
183 207 210 1
184 210 211 1
185 210 212 1
186 210 213 1
187 214 215 1
188 214 216 2
189 214 217 1
190 217 218 1
191 217 219 1
192 217 220 1
193 221 222 1
194 221 223 2
195 221 224 1
196 224 225 1
197 224 226 1
198 224 227 1
199 228 229 1
200 228 230 2
201 228 231 1
202 231 232 1
203 231 233 1
204 231 234 1
205 235 236 1
206 235 237 2
207 235 238 1
208 238 239 1
209 238 240 1
210 238 241 1
211 242 243 1
212 242 244 2
213 242 245 1
214 245 246 1
215 245 247 1
216 245 248 1
217 249 250 1
218 249 251 2
219 249 252 1
220 252 253 1
221 252 254 1
222 252 255 1
223 256 257 1
224 256 258 2
225 256 259 1
226 259 260 1
227 259 261 1
228 259 262 1
229 263 264 1
230 263 265 2
231 263 266 1
232 266 267 1
233 266 268 1
234 266 269 1
235 270 271 1
236 270 272 2
237 270 273 1
238 273 274 1
239 273 275 1
240 273 276 1
241 277 278 1
242 277 279 2
243 277 280 1
244 280 281 1
245 280 282 1
246 280 283 1
247 284 285 1
248 284 286 2
249 284 287 1
250 287 288 1
251 287 289 1
252 287 290 1
253 291 292 1
254 291 293 2
255 291 294 1
256 294 295 1
257 294 296 1
258 294 297 1
259 298 299 1
260 298 300 2
261 298 301 1
262 301 302 1
263 301 303 1
264 301 304 1
265 305 306 1
266 305 307 2
267 305 308 1
268 308 309 1
269 308 310 1
270 308 311 1
271 312 313 1
272 312 314 2
273 312 315 1
274 315 316 1
275 315 317 1
276 315 318 1
277 319 320 1
278 319 321 2
279 319 322 1
280 322 323 1
281 322 324 1
282 322 325 1
283 326 327 1
284 326 328 2
285 326 329 1
286 329 330 1
287 329 331 1
288 329 332 1
289 333 334 1
290 333 335 2
291 333 336 1
292 336 337 1
293 336 338 1
294 336 339 1
295 340 341 1
296 340 342 2
297 340 343 1
298 343 344 1
299 343 345 1
300 343 346 1
301 347 348 1
302 347 349 2
303 347 350 1
304 350 351 1
305 350 352 1
306 350 353 1
