@<TRIPOS>MOLECULE
Molecule Name
367 318
SMALL
NO_CHARGES

@<TRIPOS>ATOM
1 C1	0.0000	0.0000	0.0000 C
2 O2	-1.2332	0.0000	0.0000 O
3 O3	0.7374	1.1654	0.0000 O
4 H4	0.1401	1.9432	-0.0498 H
5 N5	2.0217	-1.2089	-0.8451 N
6 C6	0.6402	-1.2006	-2.8342 C
7 H7	-0.2982	-1.2451	-2.2967 H
8 H8	0.5756	-1.1894	-3.9147 H
9 C9	3.1256	-1.0946	-3.0472 C
10 H10	3.7565	-1.9800	-2.8947 H
11 H11	2.8838	-1.0353	-4.1103 H
12 H12	3.7265	-0.2143	-2.7864 H
13 C13	2.9928	-1.7597	1.2196 C
14 C14	3.2999	-1.0830	-0.1264 C
15 C15	0.8816	-1.2421	0.0679 C
16 C16	1.5208	-1.3745	1.4894 C
17 H17	3.0916	-2.8465	1.1176 H
18 H18	3.6613	-1.4292	2.0203 H
19 H19	4.1057	-1.5849	-0.6669 H
20 H20	3.5865	-0.0290	0.0175 H
21 H21	0.2239	-2.0882	-0.1654 H
22 H22	1.4754	-0.4122	2.0097 H
23 H23	0.9896	-2.1113	2.0972 H
24 C24	1.8530	-1.1651	-2.2317 C
25 C25	-2.4423	4.0483	-0.1778 C
26 H26	-2.6808	3.8013	-1.2298 H
27 O27	-1.4496	3.5513	0.3658 O
28 C28	-3.3933	4.9987	0.4943 C
29 H29	-4.4105	4.5848	0.4845 H
30 H30	-3.0828	5.1854	1.5245 H
31 H31	-3.4319	5.9473	-0.0574 H
32 C32	-1.0527	4.6724	-1.2897 C
33 H33	-0.9301	4.2348	-2.2987 H
34 O34	-0.9297	3.9608	-0.2865 O
35 C35	-1.3677	6.1417	-1.2566 C
36 H36	-2.2963	6.3413	-1.8079 H
37 H37	-1.4712	6.4873	-0.2258 H
38 H38	-0.5730	6.7096	-1.7583 H
39 C39	-0.6128	3.9081	2.3821 C
40 H40	-0.3809	3.2868	3.2680 H
41 O41	0.0377	3.7693	1.3403 O
42 C42	-1.7385	4.8886	2.5574 C
43 H43	-1.5141	5.5776	3.3826 H
44 H44	-1.8976	5.4562	1.6381 H
45 H45	-2.6615	4.3592	2.8287 H
46 C46	-1.0145	3.9210	2.4948 C
47 H47	-1.2078	5.0042	2.3767 H
48 O48	-1.0153	3.1799	1.5055 O
49 C49	-0.7635	3.4593	3.9029 C
50 H50	-1.6247	3.7028	4.5393 H
51 H51	-0.5829	2.3825	3.9257 H
52 H52	0.1018	3.9877	4.3249 H
53 C53	-2.1215	-0.6673	3.7352 C
54 H54	-2.4978	-0.9681	4.7315 H
55 O55	-0.9059	-0.5600	3.5384 O
56 C56	-3.1769	-0.4141	2.6954 C
57 H57	-3.8579	0.3783	3.0338 H
58 H58	-2.7181	-0.1239	1.7478 H
59 H59	-3.7870	-1.3153	2.5494 H
60 C60	-2.1149	-4.2356	-0.2428 C
61 H61	-2.1573	-3.9756	-1.3176 H
62 O62	-1.2683	-3.7104	0.4889 O
63 C63	-3.1343	-5.2385	0.2200 C
64 H64	-3.0237	-6.1758	-0.3414 H
65 H65	-3.0199	-5.4347	1.2882 H
66 H66	-4.1479	-4.8667	0.0194 H
67 C67	2.7016	-4.5982	-2.0598 C
68 H68	2.4456	-3.8664	-2.8495 H
69 O69	3.2349	-4.2176	-1.0116 O
70 C70	2.3561	-6.0282	-2.3676 C
71 H71	2.8689	-6.3519	-3.2832 H
72 H72	2.6420	-6.6777	-1.5375 H
73 H73	1.2787	-6.1240	-2.5570 H
74 C74	1.4263	3.2192	2.6758 C
75 H75	2.3063	3.7837	3.0386 H
76 O76	1.0266	3.3727	1.5162 O
77 C77	0.7944	2.2939	3.6775 C
78 H78	0.4708	2.8589	4.5618 H
79 H79	-0.0624	1.7804	3.2362 H
80 H80	1.5288	1.5551	4.0248 H
81 C81	2.8226	-4.7788	-2.6450 C
82 H82	2.4211	-5.0190	-1.6421 H
83 O83	3.9409	-4.2646	-2.7580 O
84 C84	1.9232	-5.1205	-3.7998 C
85 H85	0.9659	-4.5912	-3.7022 H
86 H86	2.3969	-4.8509	-4.7461 H
87 H87	1.6935	-6.1942	-3.7947 H
88 C88	-2.4329	-2.7427	-1.4827 C
89 H89	-2.3441	-2.2775	-2.4828 H
90 O90	-1.4859	-3.3814	-1.0101 O
91 C91	-3.7492	-2.5344	-0.7878 C
92 H92	-4.5675	-2.9344	-1.4013 H
93 H93	-3.7483	-3.0251	0.1878 H
94 H94	-3.9436	-1.4611	-0.6610 H
95 C95	7.3304	-2.6487	-1.6216 C
96 H96	7.4249	-3.0328	-2.6551 H
97 O97	6.2488	-2.2026	-1.2227 O
98 C98	8.5805	-2.7176	-0.7900 C
99 H99	9.3863	-2.1477	-1.2716 H
100 H100	8.3967	-2.3197	0.2103 H
101 H101	8.9279	-3.7566	-0.7158 H
102 C102	2.0319	-5.5236	-0.3108 C
103 H103	2.8264	-5.3773	-1.0671 H
104 O104	2.0214	-4.8379	0.7176 O
105 C105	1.0168	-6.5831	-0.6368 C
106 H106	1.5135	-7.5531	-0.7720 H
107 H107	0.2740	-6.6589	0.1602 H
108 H108	0.5171	-6.3480	-1.5859 H
109 C109	-0.7364	4.1274	1.5992 C
110 H110	-0.7627	4.4287	0.5347 H
111 O111	-0.5387	2.9459	1.9041 O
112 C112	-0.9530	5.2365	2.5902 C
113 H113	-1.9267	5.7137	2.4159 H
114 H114	-0.9108	4.8508	3.6110 H
115 H115	-0.1903	6.0153	2.4580 H
116 C116	-1.8751	-3.6808	0.8979 C
117 H117	-2.0048	-2.6306	1.2215 H
118 O118	-1.1184	-3.9509	-0.0416 O
119 C119	-2.6672	-4.6976	1.6710 C
120 H120	-3.7397	-4.4714	1.6038 H
121 H121	-2.4790	-5.7021	1.2860 H
122 H122	-2.4003	-4.6544	2.7353 H
123 C123	-4.0102	-1.6910	-0.1913 C
124 H124	-3.3768	-0.8216	0.0686 H
125 O125	-3.4893	-2.7466	-0.5684 O
126 C126	-5.4911	-1.4769	-0.0492 C
127 H127	-5.8148	-0.6425	-0.6857 H
128 H128	-6.0364	-2.3820	-0.3250 H
129 H129	-5.7351	-1.1997	0.9850 H
130 C130	-4.4576	2.9173	-0.2818 C
131 H131	-4.6652	2.9728	-1.3673 H
132 O132	-4.5526	3.9304	0.4200 O
133 C133	-4.0682	1.5599	0.2330 C
134 H134	-3.1674	1.2039	-0.2845 H
135 H135	-3.8829	1.5976	1.3085 H
136 H136	-4.8636	0.8331	0.0207 H
137 C137	0.4138	3.3823	-3.2629 C
138 H138	1.4086	3.6379	-3.6748 H
139 O139	0.3235	2.8107	-2.1706 O
140 C140	-0.7594	3.7768	-4.1157 C
141 H141	-0.6876	3.2980	-5.1014 H
142 H142	-1.6961	3.4878	-3.6345 H
143 H143	-0.7526	4.8611	-4.2889 H
144 C144	-1.9643	-2.4261	2.7894 C
145 H145	-2.6386	-1.6119	2.4622 H
146 O146	-1.1594	-2.9219	1.9930 O
147 C147	-2.1129	-2.8509	4.2235 C
148 H148	-3.1402	-3.1898	4.4124 H
149 H149	-1.4121	-3.6548	4.4586 H
150 H150	-1.9330	-1.9975	4.8906 H
151 C151	1.3049	-4.9550	-0.9876 C
152 H152	1.2625	-4.6950	-2.0624 H
153 O153	2.1515	-4.4298	-0.2559 O
154 C154	0.2855	-5.9579	-0.5248 C
155 H155	0.3961	-6.8952	-1.0862 H
156 H156	0.3999	-6.1541	0.5434 H
157 H157	-0.7281	-5.5861	-0.7254 H
158 C158	7.0029	-3.2858	-0.5734 C
159 H159	7.1165	-4.1418	-1.2656 H
160 O160	6.2684	-2.3384	-0.8748 O
161 C161	7.7879	-3.3801	0.7049 C
162 H162	8.8595	-3.4739	0.4839 H
163 H163	7.6167	-2.4973	1.3245 H
164 H164	7.4986	-4.2823	1.2600 H
165 C165	1.8929	-4.6054	-1.1629 C
166 H166	1.0657	-4.7004	-0.4340 H
167 O167	2.9508	-4.0583	-0.8319 O
168 C168	1.6215	-5.1766	-2.5264 C
169 H169	0.7438	-4.6895	-2.9719 H
170 H170	2.4874	-5.0397	-3.1775 H
171 H171	1.3844	-6.2459	-2.4474 H
172 C172	-2.0189	-2.4828	2.6154 C
173 H173	-2.3130	-2.4245	3.6807 H
174 O174	-1.0500	-3.1716	2.2768 O
175 C175	-2.8676	-1.6840	1.6663 C
176 H176	-2.8502	-0.6223	1.9463 H
177 H177	-2.5074	-1.7994	0.6418 H
178 H178	-3.9139	-2.0111	1.7287 H
179 C179	5.5059	-0.7817	4.8914 C
180 H180	5.9101	0.1488	5.3333 H
181 O181	5.0079	-0.7652	3.7601 O
182 C182	5.6144	-2.0072	5.7548 C
183 H183	5.0869	-1.8478	6.7047 H
184 H184	5.1931	-2.8746	5.2421 H
185 H185	6.6659	-2.2010	6.0048 H
186 C186	-0.3877	-4.0392	4.7195 C
187 H187	-1.4444	-4.3656	4.6829 H
188 O188	0.0976	-3.4034	3.7770 O
189 C189	0.3644	-4.4232	5.9629 C
190 H190	0.3615	-5.5147	6.0839 H
191 H191	1.3938	-4.0620	5.9138 H
192 H192	-0.1318	-4.0048	6.8487 H
193 C193	-3.9301	-0.8654	-1.3852 C
194 H194	-2.9253	-1.3102	-1.5158 H
195 O195	-4.9407	-1.5574	-1.5522 O
196 C196	-3.9486	0.5884	-1.0042 C
197 H197	-3.4302	1.1852	-1.7666 H
198 H198	-4.9761	0.9425	-0.8968 H
199 H199	-3.4060	0.7386	-0.0613 H
200 C200	6.7177	-2.9487	-0.6227 C
201 H201	6.2663	-3.3239	0.3154 H
202 O202	5.9943	-2.5523	-1.5434 O
203 C203	8.2199	-2.9658	-0.6689 C
204 H204	8.5905	-3.9890	-0.5215 H
205 H205	8.5774	-2.5803	-1.6261 H
206 H206	8.6298	-2.3593	0.1496 H
207 C207	5.7062	-3.7748	-2.9796 C
208 H208	5.3944	-3.2422	-3.8981 H
209 O209	5.1147	-3.5705	-1.9136 O
210 C210	6.8604	-4.7236	-3.1432 C
211 H211	7.7417	-4.1852	-3.5166 H
212 H212	7.0991	-5.2029	-2.1914 H
213 H213	6.6165	-5.4895	-3.8913 H
214 C214	5.4789	-4.3908	-1.2344 C
215 H215	5.9756	-4.0358	-0.3114 H
216 O216	5.2067	-3.5924	-2.1380 O
217 C217	5.1814	-5.8633	-1.2826 C
218 H218	4.5344	-6.1455	-0.4413 H
219 H219	4.6938	-6.1242	-2.2243 H
220 H220	6.1099	-6.4398	-1.1756 H
221 C221	-2.9631	-1.9026	-1.3863 C
222 H222	-3.0309	-1.4605	-0.3741 H
223 O223	-2.0155	-2.6409	-1.6779 O
224 C224	-4.0775	-1.5379	-2.3267 C
225 H225	-4.1219	-0.4481	-2.4548 H
226 H226	-3.9304	-2.0160	-3.2974 H
227 H227	-5.0433	-1.8471	-1.9055 H
228 C228	6.9792	-2.9898	-2.9743 C
229 H229	7.5661	-2.7570	-2.0654 H
230 O230	5.7517	-3.1176	-2.9035 O
231 C231	7.7769	-3.1289	-4.2405 C
232 H232	8.5256	-3.9246	-4.1295 H
233 H233	7.1205	-3.3574	-5.0828 H
234 H234	8.3282	-2.2011	-4.4433 H
235 C235	-2.1946	-3.0735	-1.1177 C
236 H236	-2.2902	-2.0314	-0.7579 H
237 O237	-1.0793	-3.5407	-1.3742 O
238 C238	-3.4860	-3.8296	-1.2579 C
239 H239	-4.1544	-3.3090	-1.9566 H
240 H240	-3.2982	-4.8439	-1.6163 H
241 H241	-4.0067	-3.8700	-0.2919 H
242 C242	-0.4695	-3.6141	4.5593 C
243 H243	-0.1437	-4.4798	5.1667 H
244 O244	-0.2512	-3.5933	3.3427 O
245 C245	-1.1683	-2.5199	5.3165 C
246 H246	-0.5127	-2.1291	6.1062 H
247 H247	-1.4533	-1.7099	4.6419 H
248 H248	-2.0625	-2.9172	5.8148 H
249 C249	-4.1731	1.5965	-2.4736 C
250 H250	-4.7905	0.8120	-2.9511 H
251 O251	-3.8038	2.5782	-3.1277 O
252 C252	-3.8425	1.3663	-1.0256 C
253 H253	-3.3027	0.4173	-0.9077 H
254 H254	-3.2336	2.1856	-0.6376 H
255 H255	-4.7653	1.2812	-0.4365 H
256 C256	6.7978	1.4205	-2.2646 C
257 H257	7.3935	1.2475	-1.3481 H
258 O258	5.6544	0.9599	-2.3567 O
259 C259	7.4776	2.2288	-3.3340 C
260 H260	8.4088	1.7365	-3.6448 H
261 H261	6.8203	2.3497	-4.1977 H
262 H262	7.7566	3.2156	-2.9414 H
263 C263	3.6830	-0.6278	5.0721 C
264 H264	2.9415	-1.1728	5.6867 H
265 O265	3.3728	-0.2132	3.9497 O
266 C266	5.0364	-0.4483	5.7008 C
267 H267	5.4746	-1.4266	5.9395 H
268 H268	5.7012	0.0974	5.0279 H
269 H269	4.9428	0.0969	6.6494 H
270 C270	-0.4861	-0.4982	-6.9492 C
271 H271	-1.3815	-0.0009	-6.5304 H
272 O272	0.3551	-0.9985	-6.1941 O
273 C273	-0.3942	-0.5072	-8.4494 C
274 H274	-0.3994	0.5214	-8.8341 H
275 H275	0.5161	-1.0159	-8.7736 H
276 H276	-1.2710	-1.0103	-8.8783 H
277 C277	-1.5467	-4.4018	-1.1577 C
278 H278	-2.3245	-3.6823	-0.8385 H
279 O279	-0.3604	-4.0563	-1.1942 O
280 C280	-2.0451	-5.7715	-1.5245 C
281 H281	-2.7730	-5.7016	-2.3438 H
282 H282	-1.2140	-6.4128	-1.8255 H
283 H283	-2.5698	-6.2232	-0.6721 H
284 C284	-1.3540	2.5013	-5.3857 C
285 H285	-2.3536	2.1686	-5.0471 H
286 O286	-1.1171	3.7062	-5.5279 O
287 C287	-0.3606	1.4032	-5.6438 C
288 H288	-0.7467	0.7170	-6.4094 H
289 H289	0.5936	1.8204	-5.9723 H
290 H290	-0.2096	0.8090	-4.7328 H
291 C291	-3.6072	-3.8930	-1.8890 C
292 H292	-3.8950	-3.5476	-2.9002 H
293 O293	-4.4137	-4.5242	-1.1968 O
294 C294	-2.2114	-3.5391	-1.4584 C
295 H295	-2.0756	-2.4494	-1.4760 H
296 H296	-2.0139	-3.9174	-0.4532 H
297 H297	-1.4809	-3.9607	-2.1616 H
298 C298	-4.0470	-2.8739	-2.9166 C
299 H299	-4.2295	-1.7834	-2.9609 H
300 O300	-4.9630	-3.6434	-2.6054 O
301 C301	-2.6486	-3.3092	-3.2541 C
302 H302	-1.9306	-2.8358	-2.5712 H
303 H303	-2.5592	-4.3955	-3.1854 H
304 H304	-2.3852	-2.9806	-4.2683 H
305 C305	-2.8418	4.2197	1.2545 C
306 H306	-2.5340	3.6521	2.1532 H
307 O307	-3.8616	4.9177	1.2815 O
308 C308	-1.9462	4.0688	0.0568 C
309 H309	-1.8834	3.0124	-0.2369 H
310 H310	-2.3237	4.6605	-0.7798 H
311 H311	-0.9260	4.3898	0.3054 H
312 C312	-1.1000	1.0861	-6.4421 C
313 H313	-0.6140	0.2187	-6.9279 H
314 O314	-1.4848	2.0428	-7.1237 O
315 C315	-1.2408	0.9950	-4.9485 C
316 H316	-0.2532	0.8781	-4.4825 H
317 H317	-1.7287	1.8893	-4.5552 H
318 H318	-1.8260	0.1060	-4.6779 H
319 C319	1.9292	-5.2092	-2.6810 C
320 H320	2.2853	-5.0749	-1.6419 H
321 O321	2.6131	-5.8415	-3.4936 O
322 C322	0.6005	-4.5806	-2.9949 C
323 H323	0.6404	-3.4994	-2.8066 H
324 H324	0.3284	-4.7620	-4.0369 H
325 H325	-0.1758	-4.9888	-2.3342 H
326 C326	-3.4888	2.5300	-2.4263 C
327 H327	-4.0731	2.5249	-1.4865 H
328 O328	-3.9299	3.1058	-3.4272 O
329 C329	-2.1728	1.8059	-2.3727 C
330 H330	-2.3313	0.7542	-2.0992 H
331 H331	-1.6661	1.8617	-3.3385 H
332 H332	-1.5329	2.2427	-1.5945 H
333 C333	4.8599	3.8298	1.6705 C
334 H334	5.1732	3.4449	2.6596 H
335 O335	5.4628	4.7780	1.1552 O
336 C336	3.6894	3.1250	1.0441 C
337 H337	2.8140	3.1868	1.7043 H
338 H338	3.4504	3.5682	0.0750 H
339 H339	3.9154	2.0581	0.9164 H
340 C340	-2.3351	-3.6077	-5.2065 C
341 H341	-1.7663	-3.0463	-5.9719 H
342 O342	-3.2957	-4.3106	-5.5401 O
343 C343	-1.8527	-3.4426	-3.7927 C
344 H344	-1.8853	-2.3836	-3.5038 H
345 H345	-2.4686	-4.0291	-3.1076 H
346 H346	-0.8049	-3.7610	-3.7116 H
347 C347	-5.1171	0.3028	1.6004 C
348 H348	-5.8265	0.8540	0.9543 H
349 O349	-5.4192	0.0407	2.7700 O
350 C350	-3.8154	-0.0782	0.9527 C
351 H351	-3.2936	0.8202	0.5968 H
352 H352	-3.1798	-0.6161	1.6593 H
353 H353	-4.0017	-0.7064	0.0716 H
354 C354	2.3932	-6.8563	-0.3831 C
355 H355	2.0100	-7.2309	-1.3513 H
356 O356	2.5816	-7.6402	0.5540 O
357 C357	2.6502	-5.3768	-0.3187 C
358 H358	1.7263	-4.8234	-0.5338 H
359 H359	3.0247	-5.0964	0.6680 H
360 H360	3.3795	-5.0865	-1.0866 H
361 C361	4.7826	-5.9287	-1.5647 C
362 H362	4.3321	-6.3007	-2.5046 H
363 O363	4.6851	-6.5917	-0.5260 O
364 C364	5.4892	-4.6061	-1.6661 C
365 H365	4.7934	-3.8321	-2.0166 H
366 H366	5.9013	-4.3176	-0.6968 H
367 H367	6.2969	-4.6654	-2.4077 H
@<TRIPOS>BOND
1 1 2 2
2 1 3 1
3 1 15 1
4 3 4 1
5 5 14 1
6 5 15 1
7 5 24 1
8 6 7 1
9 6 8 1
10 6 24 2
11 9 10 1
12 9 11 1
13 9 12 1
14 9 24 1
15 13 14 1
16 13 16 1
17 13 17 1
18 13 18 1
19 14 19 1
20 14 20 1
21 15 16 1
22 15 21 1
23 16 22 1
24 16 23 1
25 25 26 1
26 25 27 2
27 25 28 1
28 28 29 1
29 28 30 1
30 28 31 1
31 32 33 1
32 32 34 2
33 32 35 1
34 35 36 1
35 35 37 1
36 35 38 1
37 39 40 1
38 39 41 2
39 39 42 1
40 42 43 1
41 42 44 1
42 42 45 1
43 46 47 1
44 46 48 2
45 46 49 1
46 49 50 1
47 49 51 1
48 49 52 1
49 53 54 1
50 53 55 2
51 53 56 1
52 56 57 1
53 56 58 1
54 56 59 1
55 60 61 1
56 60 62 2
57 60 63 1
58 63 64 1
59 63 65 1
60 63 66 1
61 67 68 1
62 67 69 2
63 67 70 1
64 70 71 1
65 70 72 1
66 70 73 1
67 74 75 1
68 74 76 2
69 74 77 1
70 77 78 1
71 77 79 1
72 77 80 1
73 81 82 1
74 81 83 2
75 81 84 1
76 84 85 1
77 84 86 1
78 84 87 1
79 88 89 1
80 88 90 2
81 88 91 1
82 91 92 1
83 91 93 1
84 91 94 1
85 95 96 1
86 95 97 2
87 95 98 1
88 98 99 1
89 98 100 1
90 98 101 1
91 102 103 1
92 102 104 2
93 102 105 1
94 105 106 1
95 105 107 1
96 105 108 1
97 109 110 1
98 109 111 2
99 109 112 1
100 112 113 1
101 112 114 1
102 112 115 1
103 116 117 1
104 116 118 2
105 116 119 1
106 119 120 1
107 119 121 1
108 119 122 1
109 123 124 1
110 123 125 2
111 123 126 1
112 126 127 1
113 126 128 1
114 126 129 1
115 130 131 1
116 130 132 2
117 130 133 1
118 133 134 1
119 133 135 1
120 133 136 1
121 137 138 1
122 137 139 2
123 137 140 1
124 140 141 1
125 140 142 1
126 140 143 1
127 144 145 1
128 144 146 2
129 144 147 1
130 147 148 1
131 147 149 1
132 147 150 1
133 151 152 1
134 151 153 2
135 151 154 1
136 154 155 1
137 154 156 1
138 154 157 1
139 158 159 1
140 158 160 2
141 158 161 1
142 161 162 1
143 161 163 1
144 161 164 1
145 165 166 1
146 165 167 2
147 165 168 1
148 168 169 1
149 168 170 1
150 168 171 1
151 172 173 1
152 172 174 2
153 172 175 1
154 175 176 1
155 175 177 1
156 175 178 1
157 179 180 1
158 179 181 2
159 179 182 1
160 182 183 1
161 182 184 1
162 182 185 1
163 186 187 1
164 186 188 2
165 186 189 1
166 189 190 1
167 189 191 1
168 189 192 1
169 193 194 1
170 193 195 2
171 193 196 1
172 196 197 1
173 196 198 1
174 196 199 1
175 200 201 1
176 200 202 2
177 200 203 1
178 203 204 1
179 203 205 1
180 203 206 1
181 207 208 1
182 207 209 2
183 207 210 1
184 210 211 1
185 210 212 1
186 210 213 1
187 214 215 1
188 214 216 2
189 214 217 1
190 217 218 1
191 217 219 1
192 217 220 1
193 221 222 1
194 221 223 2
195 221 224 1
196 224 225 1
197 224 226 1
198 224 227 1
199 228 229 1
200 228 230 2
201 228 231 1
202 231 232 1
203 231 233 1
204 231 234 1
205 235 236 1
206 235 237 2
207 235 238 1
208 238 239 1
209 238 240 1
210 238 241 1
211 242 243 1
212 242 244 2
213 242 245 1
214 245 246 1
215 245 247 1
216 245 248 1
217 249 250 1
218 249 251 2
219 249 252 1
220 252 253 1
221 252 254 1
222 252 255 1
223 256 257 1
224 256 258 2
225 256 259 1
226 259 260 1
227 259 261 1
228 259 262 1
229 263 264 1
230 263 265 2
231 263 266 1
232 266 267 1
233 266 268 1
234 266 269 1
235 270 271 1
236 270 272 2
237 270 273 1
238 273 274 1
239 273 275 1
240 273 276 1
241 277 278 1
242 277 279 2
243 277 280 1
244 280 281 1
245 280 282 1
246 280 283 1
247 284 285 1
248 284 286 2
249 284 287 1
250 287 288 1
251 287 289 1
252 287 290 1
253 291 292 1
254 291 293 2
255 291 294 1
256 294 295 1
257 294 296 1
258 294 297 1
259 298 299 1
260 298 300 2
261 298 301 1
262 301 302 1
263 301 303 1
264 301 304 1
265 305 306 1
266 305 307 2
267 305 308 1
268 308 309 1
269 308 310 1
270 308 311 1
271 312 313 1
272 312 314 2
273 312 315 1
274 315 316 1
275 315 317 1
276 315 318 1
277 319 320 1
278 319 321 2
279 319 322 1
280 322 323 1
281 322 324 1
282 322 325 1
283 326 327 1
284 326 328 2
285 326 329 1
286 329 330 1
287 329 331 1
288 329 332 1
289 333 334 1
290 333 335 2
291 333 336 1
292 336 337 1
293 336 338 1
294 336 339 1
295 340 341 1
296 340 342 2
297 340 343 1
298 343 344 1
299 343 345 1
300 343 346 1
301 347 348 1
302 347 349 2
303 347 350 1
304 350 351 1
305 350 352 1
306 350 353 1
307 354 355 1
308 354 356 2
309 354 357 1
310 357 358 1
311 357 359 1
312 357 360 1
313 361 362 1
314 361 363 2
315 361 364 1
316 364 365 1
317 364 366 1
318 364 367 1
