@<TRIPOS>MOLECULE
Molecule Name
374 324
SMALL
NO_CHARGES

@<TRIPOS>ATOM
1 C1	0.0000	0.0000	0.0000 C
2 O2	-1.2298	0.0000	0.0000 O
3 O3	0.6881	1.1839	0.0000 O
4 H4	1.6739	1.0882	-0.0510 H
5 N5	2.0239	-1.2376	0.8546 N
6 C6	3.3908	0.0440	-0.6870 C
7 H7	2.6996	-0.0220	-1.5196 H
8 H8	4.3322	0.5373	-0.8876 H
9 C9	4.2746	-0.5377	1.5733 C
10 H10	4.6845	-1.5379	1.7617 H
11 H11	5.0965	0.1018	1.2468 H
12 H12	3.8956	-0.1505	2.5261 H
13 C13	0.8812	-3.1587	1.6067 C
14 C14	1.7931	-2.0163	2.0885 C
15 C15	0.8379	-1.3031	-0.0224 C
16 C16	0.0105	-2.5094	0.5039 C
17 H17	1.4957	-3.9649	1.1898 H
18 H18	0.2783	-3.5788	2.4172 H
19 H19	2.7338	-2.3784	2.5059 H
20 H20	1.2915	-1.4062	2.8554 H
21 H21	1.1611	-1.4665	-1.0606 H
22 H22	-0.9411	-2.1443	0.8977 H
23 H23	-0.2215	-3.2122	-0.3004 H
24 C24	3.1949	-0.5768	0.5130 C
25 C25	-0.9462	-1.8757	-3.4289 C
26 H26	-0.9111	-0.7983	-3.6792 H
27 O27	-0.0200	-2.3954	-2.7963 O
28 C28	-2.1667	-2.6108	-3.9074 C
29 H29	-2.2506	-2.5323	-4.9996 H
30 H30	-2.1176	-3.6626	-3.6177 H
31 H31	-3.0720	-2.1538	-3.4864 H
32 C32	0.7173	0.5626	-4.0432 C
33 H33	-0.2494	0.6217	-3.5079 H
34 O34	1.6526	-0.0877	-3.5634 O
35 C35	0.7818	1.3113	-5.3449 C
36 H36	0.5717	2.3763	-5.1787 H
37 H37	1.7670	1.1985	-5.8023 H
38 H38	0.0107	0.9398	-6.0328 H
39 C39	1.7886	2.5251	3.2408 C
40 H40	1.1570	3.0610	2.5070 H
41 O41	2.2778	1.4272	2.9524 O
42 C42	1.9852	3.2244	4.5566 C
43 H43	1.0145	3.4025	5.0383 H
44 H44	2.6183	2.6270	5.2161 H
45 H45	2.4447	4.2088	4.3960 H
46 C46	0.5616	2.0969	2.9690 C
47 H47	0.0111	1.5770	2.1620 H
48 O48	1.2454	1.4493	3.7696 O
49 C49	0.4064	3.5916	2.9978 C
50 H50	-0.6529	3.8592	3.1082 H
51 H51	0.9810	4.0198	3.8220 H
52 H52	0.7453	4.0248	2.0474 H
53 C53	0.0744	1.3983	4.0616 C
54 H54	-0.4698	2.0467	3.3488 H
55 O55	1.0369	0.7251	3.6764 O
56 C56	-0.4424	1.4133	5.4729 C
57 H57	-1.4947	1.0997	5.4930 H
58 H58	0.1509	0.7486	6.1043 H
59 H59	-0.4082	2.4339	5.8767 H
60 C60	1.8276	-0.6899	-4.2192 C
61 H61	2.5987	0.0626	-3.9665 H
62 O62	1.0911	-1.1432	-3.3359 O
63 C63	1.7639	-1.0886	-5.6669 C
64 H64	2.7303	-1.4993	-5.9883 H
65 H65	0.9787	-1.8310	-5.8248 H
66 H66	1.5701	-0.2076	-6.2931 H
67 C67	5.1092	-4.2522	3.6244 C
68 H68	4.5965	-5.0914	3.1169 H
69 O69	4.6130	-3.1202	3.6052 O
70 C70	6.4023	-4.6023	4.3058 C
71 H71	7.1118	-5.0187	3.5783 H
72 H72	6.8370	-3.7188	4.7781 H
73 H73	6.2320	-5.3793	5.0628 H
74 C74	-0.6121	3.7796	-1.8101 C
75 H75	-0.1248	3.1988	-2.6162 H
76 O76	-0.1684	4.8881	-1.4898 O
77 C77	-1.8057	3.1250	-1.1730 C
78 H78	-1.5199	2.1560	-0.7424 H
79 H79	-2.2214	3.7654	-0.3921 H
80 H80	-2.5737	2.9209	-1.9308 H
81 C81	1.8790	1.0074	5.2999 C
82 H82	0.9426	1.5851	5.4186 H
83 O83	1.9505	0.1103	4.4525 O
84 C84	3.0003	1.3979	6.2215 C
85 H85	2.6852	1.2868	7.2677 H
86 H86	3.8808	0.7794	6.0356 H
87 H87	3.2556	2.4562	6.0782 H
88 C88	-2.9588	0.2987	-2.5881 C
89 H89	-2.2632	1.0541	-2.1756 H
90 O90	-3.0173	0.1112	-3.8085 O
91 C91	-3.7848	-0.4412	-1.5736 C
92 H92	-4.3889	0.2664	-0.9901 H
93 H93	-4.4393	-1.1631	-2.0666 H
94 H94	-3.1309	-0.9619	-0.8615 H
95 C95	-3.6438	0.3032	-1.9350 C
96 H96	-2.8744	-0.0282	-2.6580 H
97 O97	-4.5866	-0.4429	-1.6478 O
98 C98	-3.4435	1.6788	-1.3634 C
99 H99	-3.4199	2.4232	-2.1705 H
100 H100	-4.2451	1.9221	-0.6629 H
101 H101	-2.4744	1.7370	-0.8502 H
102 C102	-2.8076	3.1835	-1.2565 C
103 H103	-2.5636	3.1884	-0.1771 H
104 O104	-3.6656	3.9542	-1.7014 O
105 C105	-2.0347	2.1994	-2.0891 C
106 H106	-2.2001	1.1791	-1.7182 H
107 H107	-2.3382	2.2631	-3.1362 H
108 H108	-0.9578	2.3967	-2.0043 H
109 C109	0.9610	-2.5870	-3.9306 C
110 H110	1.7935	-1.8687	-4.0551 H
111 O111	0.4769	-2.7865	-2.8108 O
112 C112	0.4977	-3.2637	-5.1901 C
113 H113	1.3292	-3.8132	-5.6514 H
114 H114	-0.3225	-3.9519	-4.9749 H
115 H115	0.1683	-2.5144	-5.9221 H
116 C116	-3.3734	-1.7457	-1.8132 C
117 H117	-2.4346	-1.4575	-1.3032 H
118 O118	-3.7914	-2.9063	-1.7325 O
119 C119	-4.0583	-0.6464	-2.5757 C
120 H120	-3.3855	-0.2447	-3.3451 H
121 H121	-4.9719	-1.0181	-3.0445 H
122 H122	-4.3015	0.1857	-1.9017 H
123 C123	-1.4027	0.2155	3.8468 C
124 H124	-2.1745	-0.5551	3.6597 H
125 O125	-0.3301	0.1801	3.2335 O
126 C126	-1.7646	1.2580	4.8674 C
127 H127	-1.9831	0.7817	5.8325 H
128 H128	-0.9493	1.9744	4.9878 H
129 H129	-2.6774	1.7857	4.5606 H
130 C130	4.3668	-3.8836	-0.7387 C
131 H131	4.5206	-2.8160	-0.9861 H
132 O132	3.4841	-4.2133	0.0614 O
133 C133	5.2875	-4.8471	-1.4337 C
134 H134	6.3327	-4.6098	-1.1944 H
135 H135	5.0657	-5.8730	-1.1321 H
136 H136	5.1821	-4.7515	-2.5225 H
137 C137	0.0377	0.4545	3.9871 C
138 H138	-0.5327	-0.4830	4.1302 H
139 O139	1.2589	0.4722	4.1780 O
140 C140	-0.7735	1.6455	3.5598 C
141 H141	-1.5553	1.8557	4.3017 H
142 H142	-0.1330	2.5222	3.4429 H
143 H143	-1.2852	1.4332	2.6117 H
144 C144	-3.3356	-0.9338	-2.8667 C
145 H145	-4.1138	-0.6188	-2.1457 H
146 O146	-3.3877	-2.0552	-3.3842 O
147 C147	-2.2623	0.0814	-3.1434 C
148 H148	-1.7466	0.3492	-2.2116 H
149 H149	-1.5405	-0.3118	-3.8625 H
150 H150	-2.7082	1.0051	-3.5355 H
151 C151	1.1122	-3.8775	-3.3005 C
152 H152	0.7446	-3.2847	-4.1596 H
153 O153	1.6445	-3.3113	-2.3393 O
154 C154	0.9126	-5.3634	-3.4082 C
155 H155	1.4186	-5.7484	-4.3036 H
156 H156	1.3027	-5.8667	-2.5210 H
157 H157	-0.1548	-5.5935	-3.5237 H
158 C158	-1.1049	0.0457	-2.8671 C
159 H159	-0.5188	0.9741	-3.0056 H
160 O160	-0.5377	-1.0017	-2.5366 O
161 C161	-2.5831	0.1730	-3.1073 C
162 H162	-2.7706	0.5208	-4.1319 H
163 H163	-3.0802	-0.7864	-2.9486 H
164 H164	-3.0117	0.9266	-2.4334 H
165 C165	3.1071	-4.2918	5.0152 C
166 H166	2.7381	-5.1012	4.3570 H
167 O167	3.4287	-3.1996	4.5338 O
168 C168	3.1765	-4.6298	6.4781 C
169 H169	3.8339	-5.4954	6.6348 H
170 H170	3.5492	-3.7775	7.0501 H
171 H171	2.1826	-4.9157	6.8471 H
172 C172	-0.7086	-1.7319	-3.2301 C
173 H173	0.1936	-1.3706	-3.7592 H
174 O174	-0.6443	-2.7331	-2.5079 O
175 C175	-1.9582	-0.9293	-3.4615 C
176 H176	-2.2009	-0.9089	-4.5323 H
177 H177	-2.7948	-1.3550	-2.9035 H
178 H178	-1.8004	0.1125	-3.1524 H
179 C179	5.8341	-4.3961	2.6612 C
180 H180	5.2145	-4.8858	3.4363 H
181 O181	5.2962	-3.7546	1.7517 O
182 C182	7.3187	-4.5760	2.8119 C
183 H183	7.5728	-5.6443	2.7980 H
184 H184	7.8496	-4.0620	2.0079 H
185 H185	7.6499	-4.1841	3.7826 H
186 C186	5.9764	-3.5758	-0.2011 C
187 H187	5.3546	-4.2817	-0.7839 H
188 O188	5.7673	-3.4174	1.0068 O
189 C189	7.0467	-2.8632	-0.9794 C
190 H190	6.5977	-2.2911	-1.8022 H
191 H191	7.6089	-2.1903	-0.3284 H
192 H192	7.7301	-3.5915	-1.4358 H
193 C193	1.0010	-0.1225	5.8056 C
194 H194	1.8196	0.5404	6.1449 H
195 O195	1.2564	-1.1291	5.1351 O
196 C196	-0.3825	0.2965	6.2171 C
197 H197	-0.6029	1.3012	5.8322 H
198 H198	-1.1241	-0.4115	5.8412 H
199 H199	-0.4494	0.3548	7.3116 H
200 C200	-5.2347	1.5912	-0.6331 C
201 H201	-5.7172	0.7746	-1.2032 H
202 O202	-5.5083	2.7697	-0.8867 O
203 C203	-4.2631	1.1529	0.4266 C
204 H204	-3.4580	0.5563	-0.0228 H
205 H205	-3.8370	2.0195	0.9366 H
206 H206	-4.7672	0.5059	1.1567 H
207 C207	1.8427	-3.1096	-3.2924 C
208 H208	2.5602	-2.2729	-3.1946 H
209 O209	0.8101	-3.1230	-2.6130 O
210 C210	2.2239	-4.1756	-4.2810 C
211 H211	3.1930	-4.6144	-4.0081 H
212 H212	1.4626	-4.9579	-4.3123 H
213 H213	2.3446	-3.7377	-5.2807 H
214 C214	4.0997	-5.4756	-0.2643 C
215 H215	4.7850	-4.8254	-0.8406 H
216 O216	3.4794	-5.0195	0.7028 O
217 C217	3.9995	-6.8960	-0.7454 C
218 H218	4.9886	-7.3728	-0.7232 H
219 H219	3.3047	-7.4627	-0.1220 H
220 H220	3.6606	-6.9179	-1.7897 H
221 C221	2.6685	0.9579	5.4390 C
222 H222	1.7599	0.3348	5.5425 H
223 O223	3.2089	1.0870	4.3347 O
224 C224	3.1591	1.6006	6.7060 C
225 H225	3.3814	0.8316	7.4579 H
226 H226	4.0551	2.1939	6.5117 H
227 H227	2.3763	2.2426	7.1313 H
228 C228	2.1741	3.8080	0.6364 C
229 H229	2.0774	3.9936	1.7231 H
230 O230	2.9736	2.9617	0.2210 O
231 C231	1.2848	4.6416	-0.2430 C
232 H232	1.4865	5.7088	-0.0807 H
233 H233	1.4457	4.3934	-1.2943 H
234 H234	0.2315	4.4747	0.0186 H
235 C235	-3.0272	3.6910	1.4661 C
236 H236	-3.9512	3.4826	0.8938 H
237 O237	-2.8097	4.8281	1.8991 O
238 C238	-2.1073	2.5179	1.6573 C
239 H239	-1.7975	2.1181	0.6825 H
240 H240	-1.2255	2.8130	2.2301 H
241 H241	-2.6325	1.7074	2.1798 H
242 C242	4.1008	-4.9706	1.4827 C
243 H243	3.3733	-5.2746	2.2592 H
244 O244	4.5241	-3.8096	1.4507 O
245 C245	4.5055	-6.0501	0.5183 C
246 H246	3.6219	-6.4396	-0.0049 H
247 H247	5.2222	-5.6636	-0.2093 H
248 H248	4.9499	-6.8945	1.0616 H
249 C249	4.0311	-1.1343	5.3616 C
250 H250	4.8188	-0.3744	5.1983 H
251 O251	3.8107	-1.9934	4.5006 O
252 C252	3.2912	-1.0280	6.6656 C
253 H253	2.8098	-0.0444	6.7475 H
254 H254	2.5365	-1.8136	6.7420 H
255 H255	3.9936	-1.1080	7.5059 H
256 C256	7.0688	-3.3382	3.4192 C
257 H257	6.8638	-4.3608	3.0493 H
258 O258	6.2889	-2.4160	3.1559 O
259 C259	8.3237	-3.1846	4.2321 C
260 H260	9.1965	-3.4929	3.6411 H
261 H261	8.4460	-2.1484	4.5544 H
262 H262	8.2874	-3.8426	5.1106 H
263 C263	2.7732	2.7592	4.0241 C
264 H264	1.9569	2.4729	4.7142 H
265 O265	3.2263	1.9334	3.2236 O
266 C266	3.2550	4.1777	4.1464 C
267 H267	3.6158	4.3673	5.1662 H
268 H268	4.0571	4.3720	3.4312 H
269 H269	2.4254	4.8749	3.9690 H
270 C270	7.6907	-2.8522	1.2160 C
271 H271	8.4430	-3.5646	1.6045 H
272 O272	6.5218	-2.9067	1.6144 O
273 C273	8.1999	-1.8608	0.2075 C
274 H274	8.6214	-2.3869	-0.6595 H
275 H275	7.3942	-1.2004	-0.1199 H
276 H276	9.0129	-1.2640	0.6420 H
277 C277	6.8784	2.5148	1.5935 C
278 H278	6.0189	3.0428	1.1384 H
279 O279	7.0468	1.3085	1.3828 O
280 C280	7.7772	3.3619	2.4500 C
281 H281	7.2032	3.8091	3.2726 H
282 H282	8.5946	2.7623	2.8561 H
283 H283	8.1866	4.1932	1.8608 H
284 C284	0.1938	-2.3839	5.8853 C
285 H285	-0.2480	-3.3393	5.5439 H
286 O286	0.7882	-1.6545	5.0836 O
287 C287	0.0117	-2.0727	7.3444 C
288 H288	0.4544	-2.8684	7.9584 H
289 H289	0.4766	-1.1161	7.5922 H
290 H290	-1.0575	-2.0387	7.5927 H
291 C291	4.8300	-3.1622	4.7970 C
292 H292	3.7684	-3.2759	5.0879 H
293 O293	5.1326	-2.4837	3.8090 O
294 C294	5.8203	-3.8759	5.6740 C
295 H295	5.6050	-4.9527	5.6878 H
296 H296	6.8382	-3.7097	5.3151 H
297 H297	5.7315	-3.5217	6.7096 H
298 C298	8.1775	-0.1031	-0.3024 C
299 H299	8.4188	-1.0543	-0.8138 H
300 O300	7.0039	0.1737	-0.0301 O
301 C301	9.3541	0.7769	0.0141 C
302 H302	9.8909	1.0359	-0.9083 H
303 H303	9.0250	1.6894	0.5158 H
304 H304	10.0660	0.2396	0.6547 H
305 C305	2.8114	-5.5014	3.6193 C
306 H306	3.1577	-6.4998	3.2909 H
307 O307	3.3606	-4.4819	3.1870 O
308 C308	1.6664	-5.5027	4.5930 C
309 H309	1.9411	-6.0608	5.4981 H
310 H310	1.3916	-4.4804	4.8613 H
311 H311	0.7994	-6.0153	4.1556 H
312 C312	8.0634	1.7944	2.0268 C
313 H313	8.9388	1.2318	1.6503 H
314 O314	6.9233	1.3421	1.8733 O
315 C315	8.3769	3.0965	2.7089 C
316 H316	8.9150	3.7629	2.0215 H
317 H317	7.4588	3.5817	3.0469 H
318 H318	9.0403	2.9234	3.5666 H
319 C319	1.2245	-0.1641	5.8896 C
320 H320	0.9169	-1.1348	6.3226 H
321 O321	1.1998	0.0040	4.6652 O
322 C322	1.6541	0.8793	6.8825 C
323 H323	2.5012	0.5098	7.4758 H
324 H324	1.9390	1.8005	6.3700 H
325 H325	0.8392	1.0866	7.5887 H
326 C326	2.2138	1.8426	-4.2830 C
327 H327	1.1661	2.1164	-4.0552 H
328 O328	2.8585	1.1460	-3.4911 O
329 C329	2.7521	2.3721	-5.5826 C
330 H330	2.6971	3.4689	-5.5951 H
331 H331	3.7872	2.0548	-5.7253 H
332 H332	2.1376	2.0145	-6.4194 H
333 C333	5.1612	3.2436	-1.5431 C
334 H334	4.6217	3.4690	-2.4827 H
335 O335	5.8152	2.1999	-1.4391 O
336 C336	5.0297	4.2762	-0.4589 C
337 H337	3.9724	4.4154	-0.1963 H
338 H338	5.5913	3.9736	0.4274 H
339 H339	5.3980	5.2473	-0.8156 H
340 C340	1.7991	4.9002	0.2035 C
341 H341	0.9039	4.6411	-0.3932 H
342 O342	2.1303	6.0830	0.3425 O
343 C343	2.5378	3.7347	0.7995 C
344 H344	2.8680	3.0512	0.0058 H
345 H345	3.4028	4.0811	1.3690 H
346 H346	1.8702	3.1600	1.4551 H
347 C347	5.2145	-1.2009	5.5165 C
348 H348	4.3118	-1.5792	6.0328 H
349 O349	5.1349	-0.7815	4.3564 O
350 C350	6.4840	-1.2434	6.3201 C
351 H351	6.7002	-2.2745	6.6302 H
352 H352	7.3197	-0.8530	5.7355 H
353 H353	6.3690	-0.6536	7.2392 H
354 C354	-5.3739	0.0638	-0.1914 C
355 H355	-6.2074	-0.6444	-0.0229 H
356 O356	-5.4734	0.9440	-1.0537 O
357 C357	-4.1690	-0.1362	0.6845 C
358 H358	-3.7640	-1.1474	0.5443 H
359 H359	-3.3997	0.6029	0.4510 H
360 H360	-4.4528	-0.0522	1.7419 H
361 C361	-1.4711	-2.2860	-4.5288 C
362 H362	-0.7587	-1.9700	-5.3145 H
363 O363	-2.4100	-3.0391	-4.8103 O
364 C364	-1.2020	-1.7393	-3.1549 C
365 H365	-1.2143	-0.6414	-3.1763 H
366 H366	-1.9501	-2.1010	-2.4463 H
367 H367	-0.2003	-2.0385	-2.8190 H
368 C368	-3.9393	-0.4220	3.5036 C
369 H369	-4.8742	-0.7096	2.9860 H
370 O370	-3.8469	0.6846	4.0466 O
371 C371	-2.8466	-1.4539	3.4848 C
372 H372	-2.5771	-1.6995	2.4489 H
373 H373	-1.9657	-1.0876	4.0162 H
374 H374	-3.1979	-2.3844	3.9500 H
@<TRIPOS>BOND
1 1 2 2
2 1 3 1
3 1 15 1
4 3 4 1
5 5 14 1
6 5 15 1
7 5 24 1
8 6 7 1
9 6 8 1
10 6 24 2
11 9 10 1
12 9 11 1
13 9 12 1
14 9 24 1
15 13 14 1
16 13 16 1
17 13 17 1
18 13 18 1
19 14 19 1
20 14 20 1
21 15 16 1
22 15 21 1
23 16 22 1
24 16 23 1
25 25 26 1
26 25 27 2
27 25 28 1
28 28 29 1
29 28 30 1
30 28 31 1
31 32 33 1
32 32 34 2
33 32 35 1
34 35 36 1
35 35 37 1
36 35 38 1
37 39 40 1
38 39 41 2
39 39 42 1
40 42 43 1
41 42 44 1
42 42 45 1
43 46 47 1
44 46 48 2
45 46 49 1
46 49 50 1
47 49 51 1
48 49 52 1
49 53 54 1
50 53 55 2
51 53 56 1
52 56 57 1
53 56 58 1
54 56 59 1
55 60 61 1
56 60 62 2
57 60 63 1
58 63 64 1
59 63 65 1
60 63 66 1
61 67 68 1
62 67 69 2
63 67 70 1
64 70 71 1
65 70 72 1
66 70 73 1
67 74 75 1
68 74 76 2
69 74 77 1
70 77 78 1
71 77 79 1
72 77 80 1
73 81 82 1
74 81 83 2
75 81 84 1
76 84 85 1
77 84 86 1
78 84 87 1
79 88 89 1
80 88 90 2
81 88 91 1
82 91 92 1
83 91 93 1
84 91 94 1
85 95 96 1
86 95 97 2
87 95 98 1
88 98 99 1
89 98 100 1
90 98 101 1
91 102 103 1
92 102 104 2
93 102 105 1
94 105 106 1
95 105 107 1
96 105 108 1
97 109 110 1
98 109 111 2
99 109 112 1
100 112 113 1
101 112 114 1
102 112 115 1
103 116 117 1
104 116 118 2
105 116 119 1
106 119 120 1
107 119 121 1
108 119 122 1
109 123 124 1
110 123 125 2
111 123 126 1
112 126 127 1
113 126 128 1
114 126 129 1
115 130 131 1
116 130 132 2
117 130 133 1
118 133 134 1
119 133 135 1
120 133 136 1
121 137 138 1
122 137 139 2
123 137 140 1
124 140 141 1
125 140 142 1
126 140 143 1
127 144 145 1
128 144 146 2
129 144 147 1
130 147 148 1
131 147 149 1
132 147 150 1
133 151 152 1
134 151 153 2
135 151 154 1
136 154 155 1
137 154 156 1
138 154 157 1
139 158 159 1
140 158 160 2
141 158 161 1
142 161 162 1
143 161 163 1
144 161 164 1
145 165 166 1
146 165 167 2
147 165 168 1
148 168 169 1
149 168 170 1
150 168 171 1
151 172 173 1
152 172 174 2
153 172 175 1
154 175 176 1
155 175 177 1
156 175 178 1
157 179 180 1
158 179 181 2
159 179 182 1
160 182 183 1
161 182 184 1
162 182 185 1
163 186 187 1
164 186 188 2
165 186 189 1
166 189 190 1
167 189 191 1
168 189 192 1
169 193 194 1
170 193 195 2
171 193 196 1
172 196 197 1
173 196 198 1
174 196 199 1
175 200 201 1
176 200 202 2
177 200 203 1
178 203 204 1
179 203 205 1
180 203 206 1
181 207 208 1
182 207 209 2
183 207 210 1
184 210 211 1
185 210 212 1
186 210 213 1
187 214 215 1
188 214 216 2
189 214 217 1
190 217 218 1
191 217 219 1
192 217 220 1
193 221 222 1
194 221 223 2
195 221 224 1
196 224 225 1
197 224 226 1
198 224 227 1
199 228 229 1
200 228 230 2
201 228 231 1
202 231 232 1
203 231 233 1
204 231 234 1
205 235 236 1
206 235 237 2
207 235 238 1
208 238 239 1
209 238 240 1
210 238 241 1
211 242 243 1
212 242 244 2
213 242 245 1
214 245 246 1
215 245 247 1
216 245 248 1
217 249 250 1
218 249 251 2
219 249 252 1
220 252 253 1
221 252 254 1
222 252 255 1
223 256 257 1
224 256 258 2
225 256 259 1
226 259 260 1
227 259 261 1
228 259 262 1
229 263 264 1
230 263 265 2
231 263 266 1
232 266 267 1
233 266 268 1
234 266 269 1
235 270 271 1
236 270 272 2
237 270 273 1
238 273 274 1
239 273 275 1
240 273 276 1
241 277 278 1
242 277 279 2
243 277 280 1
244 280 281 1
245 280 282 1
246 280 283 1
247 284 285 1
248 284 286 2
249 284 287 1
250 287 288 1
251 287 289 1
252 287 290 1
253 291 292 1
254 291 293 2
255 291 294 1
256 294 295 1
257 294 296 1
258 294 297 1
259 298 299 1
260 298 300 2
261 298 301 1
262 301 302 1
263 301 303 1
264 301 304 1
265 305 306 1
266 305 307 2
267 305 308 1
268 308 309 1
269 308 310 1
270 308 311 1
271 312 313 1
272 312 314 2
273 312 315 1
274 315 316 1
275 315 317 1
276 315 318 1
277 319 320 1
278 319 321 2
279 319 322 1
280 322 323 1
281 322 324 1
282 322 325 1
283 326 327 1
284 326 328 2
285 326 329 1
286 329 330 1
287 329 331 1
288 329 332 1
289 333 334 1
290 333 335 2
291 333 336 1
292 336 337 1
293 336 338 1
294 336 339 1
295 340 341 1
296 340 342 2
297 340 343 1
298 343 344 1
299 343 345 1
300 343 346 1
301 347 348 1
302 347 349 2
303 347 350 1
304 350 351 1
305 350 352 1
306 350 353 1
307 354 355 1
308 354 356 2
309 354 357 1
310 357 358 1
311 357 359 1
312 357 360 1
313 361 362 1
314 361 363 2
315 361 364 1
316 364 365 1
317 364 366 1
318 364 367 1
319 368 369 1
320 368 370 2
321 368 371 1
322 371 372 1
323 371 373 1
324 371 374 1
