@<TRIPOS>MOLECULE
Molecule Name
353 306
SMALL
NO_CHARGES

@<TRIPOS>ATOM
1 C1	0.0000	0.0000	0.0000 C
2 O2	-1.2238	0.0000	0.0000 O
3 O3	0.6911	1.2023	0.0000 O
4 H4	1.6618	1.0855	0.0468 H
5 N5	0.4154	-2.3123	0.8346 N
6 C6	0.9921	-1.0361	2.8093 C
7 H7	1.3139	-0.1587	2.2637 H
8 H8	1.0505	-0.9738	3.8878 H
9 C9	0.4970	-2.1505	2.2199 C
10 C10	0.0134	-3.3188	3.0505 C
11 H11	0.6064	-4.2242	2.8675 H
12 H12	0.0894	-3.0775	4.1124 H
13 H13	-1.0341	-3.5607	2.8327 H
14 C14	0.5538	-3.4266	-1.2302 C
15 C15	-0.1598	-3.4727	0.1306 C
16 C16	0.8617	-1.2747	-0.0870 C
17 C17	0.6988	-1.9138	-1.5035 C
18 H18	1.5392	-3.9000	-1.1496 H
19 H19	-0.0076	-3.9368	-2.0184 H
20 H20	0.0413	-4.4000	0.6715 H
21 H21	-1.2492	-3.3735	0.0102 H
22 H22	1.9140	-1.0212	0.1250 H
23 H23	-0.2148	-1.5302	-1.9695 H
24 H24	1.5420	-1.6741	-2.1569 H
25 C25	3.3596	3.2030	2.0114 C
26 H26	2.5808	3.3214	2.7886 H
27 O27	3.2539	2.3146	1.1584 O
28 C28	4.5018	4.1769	2.0876 C
29 H29	5.0044	4.0941	3.0606 H
30 H30	5.2195	3.9880	1.2865 H
31 H31	4.1263	5.2060	2.0116 H
32 C32	2.6748	3.1762	1.5263 C
33 H33	2.0343	3.1972	2.4285 H
34 O34	3.3078	2.1540	1.2393 O
35 C35	2.7005	4.4460	0.7225 C
36 H36	3.0509	5.2800	1.3453 H
37 H37	3.3543	4.3360	-0.1453 H
38 H38	1.6860	4.7031	0.3901 H
39 C39	2.4258	2.4484	2.9803 C
40 H40	1.4986	2.2741	3.5586 H
41 O41	2.6831	1.7469	1.9955 O
42 C42	3.2996	3.5641	3.4811 C
43 H43	3.6007	3.3709	4.5194 H
44 H44	4.1879	3.6650	2.8539 H
45 H45	2.7406	4.5093	3.4840 H
46 C46	3.1911	2.7235	2.2760 C
47 H47	3.9602	2.1604	2.8381 H
48 O48	3.0884	2.5798	1.0525 O
49 C49	2.3258	3.6347	3.1007 C
50 H50	2.9469	4.3743	3.6233 H
51 H51	1.5986	4.1476	2.4677 H
52 H52	1.8006	3.0587	3.8741 H
53 C53	-3.7555	-2.1258	1.3604 C
54 H54	-3.1655	-2.1760	0.4255 H
55 O55	-3.5553	-2.9448	2.2643 O
56 C56	-4.7733	-1.0216	1.4234 C
57 H57	-5.4896	-1.1207	0.5969 H
58 H58	-5.3064	-1.0470	2.3762 H
59 H59	-4.2816	-0.0474	1.3015 H
60 C60	3.9042	3.5705	-0.4565 C
61 H61	4.1233	3.3674	-1.5221 H
62 O62	2.9993	2.9551	0.1183 O
63 C63	4.7689	4.6140	0.1934 C
64 H64	4.6746	5.5688	-0.3411 H
65 H65	4.4845	4.7491	1.2390 H
66 H66	5.8252	4.3201	0.1331 H
67 C67	4.9113	-0.4551	1.6123 C
68 H68	5.1910	-1.4722	1.9468 H
69 O69	3.7542	-0.2191	1.2472 O
70 C70	6.0175	0.5620	1.6425 C
71 H71	6.8504	0.2330	1.0069 H
72 H72	5.6540	1.5325	1.2981 H
73 H73	6.4150	0.6573	2.6617 H
74 C74	3.7979	-0.4974	-2.1994 C
75 H75	4.0051	-1.4985	-1.7757 H
76 O76	3.0613	0.2906	-1.5957 O
77 C77	4.4643	-0.2014	-3.5137 C
78 H78	4.1567	-0.9386	-4.2674 H
79 H79	4.2058	0.8029	-3.8557 H
80 H80	5.5543	-0.2878	-3.4123 H
81 C81	4.5193	-0.1797	-2.5243 C
82 H82	5.1482	0.1165	-1.6633 H
83 O83	3.2883	-0.2033	-2.4136 O
84 C84	5.2670	-0.5329	-3.7794 C
85 H85	5.9580	-1.3643	-3.5859 H
86 H86	4.5710	-0.8113	-4.5735 H
87 H87	5.8790	0.3181	-4.1065 H
88 C88	2.1215	2.2776	3.5766 C
89 H89	2.0504	1.5302	4.3896 H
90 O90	2.3010	1.9094	2.4103 O
91 C91	1.9859	3.7121	4.0041 C
92 H92	2.7629	3.9623	4.7388 H
93 H93	2.0680	4.3773	3.1420 H
94 H94	1.0187	3.8684	4.5002 H
95 C95	-4.1819	3.2249	-0.4762 C
96 H96	-4.2057	3.7057	0.5203 H
97 O97	-4.3924	3.8955	-1.4930 O
98 C98	-3.8839	1.7517	-0.4758 C
99 H99	-4.6331	1.2151	0.1215 H
100 H100	-3.8801	1.3622	-1.4960 H
101 H101	-2.9097	1.5637	-0.0053 H
102 C102	-3.0674	1.1937	-3.8094 C
103 H103	-3.8308	1.7486	-4.3873 H
104 O104	-2.3132	0.3991	-4.3819 O
105 C105	-3.0363	1.4836	-2.3349 C
106 H106	-4.0107	1.2525	-1.8840 H
107 H107	-2.2568	0.8954	-1.8460 H
108 H108	-2.8538	2.5529	-2.1641 H
109 C109	1.0341	4.4055	-1.7160 C
110 H110	1.5394	4.8032	-0.8154 H
111 O111	1.6215	4.3980	-2.8037 O
112 C112	-0.3651	3.9003	-1.5018 C
113 H113	-1.0003	4.7041	-1.1062 H
114 H114	-0.7849	3.5283	-2.4388 H
115 H115	-0.3662	3.0977	-0.7524 H
116 C116	4.2892	1.4335	1.4818 C
117 H117	5.3594	1.1519	1.4784 H
118 O118	3.4269	0.5884	1.7470 O
119 C119	3.9980	2.8702	1.1498 C
120 H120	4.3909	3.1146	0.1538 H
121 H121	2.9226	3.0583	1.1766 H
122 H122	4.5066	3.5329	1.8625 H
123 C123	-2.7023	-4.5542	-3.8183 C
124 H124	-2.5908	-3.5956	-4.3597 H
125 O125	-1.9149	-4.8495	-2.9124 O
126 C126	-3.8456	-5.4205	-4.2671 C
127 H127	-3.7391	-5.6643	-5.3326 H
128 H128	-3.8801	-6.3416	-3.6814 H
129 H129	-4.7947	-4.8788	-4.1594 H
130 C130	2.9968	3.8381	-1.4730 C
131 H131	3.7843	3.3832	-2.1033 H
132 O132	2.4016	3.1527	-0.6339 O
133 C133	2.7324	5.2967	-1.7216 C
134 H134	2.4368	5.4539	-2.7675 H
135 H135	1.9446	5.6609	-1.0588 H
136 H136	3.6491	5.8794	-1.5604 H
137 C137	3.2197	-2.9095	-4.9922 C
138 H138	3.6631	-3.9158	-5.1160 H
139 O139	2.6568	-2.6062	-3.9343 O
140 C140	3.3601	-1.9917	-6.1742 C
141 H141	2.8916	-2.4420	-7.0596 H
142 H142	2.8965	-1.0254	-5.9650 H
143 H143	4.4214	-1.8473	-6.4162 H
144 C144	-1.0215	-1.4883	6.9771 C
145 H145	-1.5905	-2.1739	7.6335 H
146 O146	-0.3172	-1.9425	6.0683 O
147 C147	-1.1786	-0.0246	7.2804 C
148 H148	-0.8632	0.1832	8.3116 H
149 H149	-0.5852	0.5753	6.5872 H
150 H150	-2.2353	0.2648	7.2078 H
151 C151	1.2467	-7.6017	0.4959 C
152 H152	2.1884	-7.7512	1.0575 H
153 O153	0.9041	-6.4650	0.1517 O
154 C154	0.4623	-8.8506	0.2058 C
155 H155	0.1995	-9.3578	1.1438 H
156 H156	-0.4472	-8.6106	-0.3490 H
157 H157	1.0738	-9.5543	-0.3744 H
158 C158	-1.0337	0.8647	-4.2384 C
159 H159	-1.7125	1.5495	-3.6954 H
160 O160	-0.8088	-0.2665	-3.7935 O
161 C161	-0.4405	1.4134	-5.5057 C
162 H162	0.1300	2.3269	-5.2909 H
163 H163	0.2130	0.6740	-5.9734 H
164 H164	-1.2387	1.6954	-6.2051 H
165 C165	-3.8596	-4.1473	1.9489 C
166 H166	-3.6189	-4.2213	3.0264 H
167 O167	-2.9942	-4.3962	1.1020 O
168 C168	-5.2693	-3.7359	1.6285 C
169 H169	-5.4870	-2.7559	2.0738 H
170 H170	-5.4175	-3.6890	0.5475 H
171 H171	-5.9798	-4.4485	2.0679 H
172 C172	3.8269	1.0024	2.7080 C
173 H173	2.9105	1.1153	3.3179 H
174 O174	3.9025	0.1026	1.8638 O
175 C175	4.9172	1.9979	2.9895 C
176 H176	5.2230	1.9353	4.0424 H
177 H177	5.7793	1.8131	2.3452 H
178 H178	4.5472	3.0190	2.8272 H
179 C179	0.9707	4.0895	-0.1846 C
180 H180	0.3230	3.8494	0.6799 H
181 O181	1.8568	3.3011	-0.5329 O
182 C182	0.6850	5.4006	-0.8616 C
183 H183	0.7878	6.2261	-0.1447 H
184 H184	1.3680	5.5550	-1.6996 H
185 H185	-0.3521	5.4213	-1.2220 H
186 C186	2.4269	-6.4343	0.1085 C
187 H187	2.2571	-6.2014	-0.9599 H
188 O188	1.6268	-6.0388	0.9638 O
189 C189	3.6620	-7.2374	0.4064 C
190 H190	4.5536	-6.7056	0.0482 H
191 H191	3.7498	-7.4199	1.4795 H
192 H192	3.6278	-8.1953	-0.1294 H
193 C193	4.0213	-4.2787	0.4028 C
194 H194	4.2239	-5.0814	1.1371 H
195 O195	3.7035	-4.5654	-0.7568 O
196 C196	4.1621	-2.8759	0.9237 C
197 H197	5.1801	-2.7143	1.3028 H
198 H198	3.9447	-2.1518	0.1356 H
199 H199	3.4801	-2.7169	1.7695 H
200 C200	4.7050	-0.6353	-0.6500 C
201 H201	5.1139	-1.1524	0.2388 H
202 O202	3.7446	-1.1180	-1.2605 O
203 C203	5.3943	0.6463	-1.0260 C
204 H204	6.4579	0.4587	-1.2251 H
205 H205	4.9275	1.0864	-1.9097 H
206 H206	5.3490	1.3583	-0.1913 H
207 C207	-2.3930	-2.7342	-4.4123 C
208 H208	-2.7920	-3.7581	-4.5430 H
209 O209	-1.7907	-2.4315	-3.3762 O
210 C210	-2.6406	-1.7931	-5.5578 C
211 H211	-3.7192	-1.6962	-5.7404 H
212 H212	-2.2147	-0.8105	-5.3442 H
213 H213	-2.1981	-2.1949	-6.4790 H
214 C214	-4.5240	0.0903	2.8468 C
215 H215	-3.9273	0.0345	3.7771 H
216 O216	-5.7220	0.3906	2.8961 O
217 C217	-3.7762	-0.2186	1.5801 C
218 H218	-3.3523	-1.2305	1.6291 H
219 H219	-4.4392	-0.1398	0.7159 H
220 H220	-2.9318	0.4733	1.4618 H
221 C221	3.0782	1.1237	-3.1766 C
222 H222	3.1620	1.9320	-2.4255 H
223 O223	2.1382	0.3227	-3.1228 O
224 C224	4.1623	1.0937	-4.2172 C
225 H225	5.1438	0.9847	-3.7368 H
226 H226	4.0009	0.2684	-4.9138 H
227 H227	4.1830	2.0433	-4.7683 H
228 C228	3.0782	1.1237	-3.1766 C
229 H229	3.1620	1.9320	-2.4255 H
230 O230	2.1382	0.3227	-3.1228 O
231 C231	4.1623	1.0937	-4.2172 C
232 H232	5.1438	0.9847	-3.7368 H
233 H233	4.0009	0.2684	-4.9138 H
234 H234	4.1830	2.0433	-4.7683 H
235 C235	-0.2330	-7.3745	-0.1477 C
236 H236	0.4942	-7.0400	-0.9118 H
237 O237	-0.5669	-6.6117	0.7659 O
238 C238	-0.7507	-8.7752	-0.3177 C
239 H239	0.0827	-9.4902	-0.3021 H
240 H240	-1.4592	-9.0200	0.4764 H
241 H241	-1.2405	-8.8807	-1.2949 H
242 C242	1.1683	-6.5184	4.4156 C
243 H243	0.4364	-5.8549	4.9142 H
244 O244	1.4975	-6.3076	3.2429 O
245 C245	1.6980	-7.6448	5.2581 C
246 H246	0.8711	-8.2804	5.6019 H
247 H247	2.4106	-8.2455	4.6889 H
248 H248	2.1864	-7.2463	6.1573 H
249 C249	1.7997	-1.9802	-5.6247 C
250 H250	0.8874	-2.2043	-6.2097 H
251 O251	1.7071	-1.6197	-4.4460 O
252 C252	3.0980	-2.1477	-6.3632 C
253 H253	3.1161	-1.4968	-7.2475 H
254 H254	3.9416	-1.9068	-5.7128 H
255 H255	3.1952	-3.1792	-6.7270 H
256 C256	4.7727	-2.9819	-0.2483 C
257 H257	5.0404	-2.0477	0.2811 H
258 O258	3.5972	-3.3632	-0.2764 O
259 C259	5.9177	-3.7072	-0.8979 C
260 H260	6.6735	-3.9701	-0.1458 H
261 H261	5.5638	-4.6130	-1.3948 H
262 H262	6.4121	-3.0541	-1.6293 H
263 C263	3.5759	-4.0409	5.3002 C
264 H264	4.4531	-4.5975	5.6815 H
265 O265	2.5018	-4.6253	5.1195 O
266 C266	3.8033	-2.5788	5.0361 C
267 H267	4.6096	-2.4487	4.3019 H
268 H268	2.8893	-2.1108	4.6643 H
269 H269	4.1281	-2.0750	5.9561 H
270 C270	-0.5614	-6.9546	3.9108 C
271 H271	-1.1717	-7.7879	3.5135 H
272 O272	0.3551	-6.4789	3.2313 O
273 C273	-0.9342	-6.4797	5.2872 C
274 H274	-0.8554	-7.3062	6.0060 H
275 H275	-0.2835	-5.6596	5.5979 H
276 H276	-1.9804	-6.1463	5.3011 H
277 C277	1.5204	0.9385	6.3481 C
278 H278	1.5087	1.7480	5.5937 H
279 O279	1.6211	-0.2405	5.9904 O
280 C280	1.4077	1.3865	7.7784 C
281 H281	0.4759	1.9487	7.9256 H
282 H282	1.4276	0.5264	8.4510 H
283 H283	2.2318	2.0684	8.0265 H
284 C284	-3.8148	-5.1465	1.7600 C
285 H285	-4.7788	-5.3947	2.2433 H
286 O286	-3.1434	-4.1929	2.1699 O
287 C287	-3.4187	-6.0350	0.6142 C
288 H288	-4.1874	-6.0057	-0.1695 H
289 H289	-2.4593	-5.7190	0.1993 H
290 H290	-3.3496	-7.0777	0.9515 H
291 C291	-3.3911	3.3816	-1.5636 C
292 H292	-4.4234	3.1563	-1.2348 H
293 O293	-3.1822	4.3002	-2.3640 O
294 C294	-2.3199	2.5077	-0.9737 C
295 H295	-2.5127	1.4552	-1.2207 H
296 H296	-1.3376	2.7994	-1.3513 H
297 H297	-2.3316	2.5834	0.1217 H
298 C298	0.6739	1.3340	-3.6898 C
299 H299	1.0094	2.1391	-3.0088 H
300 O300	0.0547	0.3620	-3.2428 O
301 C301	1.0253	1.5251	-5.1387 C
302 H302	2.1139	1.6108	-5.2550 H
303 H303	0.6571	0.6876	-5.7350 H
304 H304	0.5920	2.4626	-5.5118 H
305 C305	0.6396	4.4795	0.0400 C
306 H306	-0.1250	3.6808	0.0871 H
307 O307	0.3222	5.6213	-0.3115 O
308 C308	2.0319	4.0645	0.4250 C
309 H309	2.3773	3.2510	-0.2268 H
310 H310	2.7176	4.9112	0.3502 H
311 H311	2.0392	3.6733	1.4510 H
312 C312	-3.6546	-5.7278	-0.1103 C
313 H313	-2.9959	-6.5781	0.1497 H
314 O314	-3.1906	-4.5844	-0.1842 O
315 C315	-5.0961	-6.0777	-0.3529 C
316 H316	-5.5243	-6.5542	0.5391 H
317 H317	-5.6700	-5.1827	-0.6023 H
318 H318	-5.1752	-6.8066	-1.1704 H
319 C319	-2.8710	0.5516	4.2117 C
320 H320	-3.5352	-0.2999	3.9698 H
321 O321	-3.1100	1.2649	5.1926 O
322 C322	-1.7080	0.7488	3.2802 C
323 H323	-2.0680	0.9041	2.2544 H
324 H324	-1.1090	1.6067	3.5928 H
325 H325	-1.0811	-0.1526	3.2630 H
326 C326	4.2992	-1.7781	3.7860 C
327 H327	3.3266	-1.2507	3.7652 H
328 O328	4.4002	-2.9112	3.3023 O
329 C329	5.4300	-1.0232	4.4267 C
330 H330	5.1773	-0.7752	5.4662 H
331 H331	6.3470	-1.6158	4.4032 H
332 H332	5.5923	-0.0711	3.9042 H
333 C333	-4.8390	-2.2518	0.5208 C
334 H334	-4.7715	-3.2742	0.1026 H
335 O335	-5.9218	-1.6557	0.5283 O
336 C336	-3.5525	-1.6849	1.0524 C
337 H337	-2.7952	-1.6571	0.2576 H
338 H338	-3.7114	-0.6778	1.4436 H
339 H339	-3.1549	-2.3309	1.8464 H
340 C340	-4.7038	-1.8795	3.7358 C
341 H341	-5.7741	-2.0143	3.4890 H
342 O342	-4.3695	-1.5281	4.8728 O
343 C343	-3.7426	-2.1510	2.6127 C
344 H344	-3.9608	-1.4924	1.7615 H
345 H345	-2.7138	-1.9942	2.9438 H
346 H346	-3.8619	-3.1820	2.2544 H
347 C347	-0.8685	3.0377	4.3184 C
348 H348	-0.5451	2.7292	5.3308 H
349 O349	-1.3605	4.1575	4.1394 O
350 C350	-0.6631	2.0161	3.2352 C
351 H351	-1.2067	1.0934	3.4784 H
352 H352	-1.0084	2.4032	2.2743 H
353 H353	0.3996	1.7487	3.1651 H
@<TRIPOS>BOND
1 1 2 2
2 1 3 1
3 1 16 1
4 3 4 1
5 5 9 1
6 5 15 1
7 5 16 1
8 6 7 1
9 6 8 1
10 6 9 2
11 9 10 1
12 10 11 1
13 10 12 1
14 10 13 1
15 14 15 1
16 14 17 1
17 14 18 1
18 14 19 1
19 15 20 1
20 15 21 1
21 16 17 1
22 16 22 1
23 17 23 1
24 17 24 1
25 25 26 1
26 25 27 2
27 25 28 1
28 28 29 1
29 28 30 1
30 28 31 1
31 32 33 1
32 32 34 2
33 32 35 1
34 35 36 1
35 35 37 1
36 35 38 1
37 39 40 1
38 39 41 2
39 39 42 1
40 42 43 1
41 42 44 1
42 42 45 1
43 46 47 1
44 46 48 2
45 46 49 1
46 49 50 1
47 49 51 1
48 49 52 1
49 53 54 1
50 53 55 2
51 53 56 1
52 56 57 1
53 56 58 1
54 56 59 1
55 60 61 1
56 60 62 2
57 60 63 1
58 63 64 1
59 63 65 1
60 63 66 1
61 67 68 1
62 67 69 2
63 67 70 1
64 70 71 1
65 70 72 1
66 70 73 1
67 74 75 1
68 74 76 2
69 74 77 1
70 77 78 1
71 77 79 1
72 77 80 1
73 81 82 1
74 81 83 2
75 81 84 1
76 84 85 1
77 84 86 1
78 84 87 1
79 88 89 1
80 88 90 2
81 88 91 1
82 91 92 1
83 91 93 1
84 91 94 1
85 95 96 1
86 95 97 2
87 95 98 1
88 98 99 1
89 98 100 1
90 98 101 1
91 102 103 1
92 102 104 2
93 102 105 1
94 105 106 1
95 105 107 1
96 105 108 1
97 109 110 1
98 109 111 2
99 109 112 1
100 112 113 1
101 112 114 1
102 112 115 1
103 116 117 1
104 116 118 2
105 116 119 1
106 119 120 1
107 119 121 1
108 119 122 1
109 123 124 1
110 123 125 2
111 123 126 1
112 126 127 1
113 126 128 1
114 126 129 1
115 130 131 1
116 130 132 2
117 130 133 1
118 133 134 1
119 133 135 1
120 133 136 1
121 137 138 1
122 137 139 2
123 137 140 1
124 140 141 1
125 140 142 1
126 140 143 1
127 144 145 1
128 144 146 2
129 144 147 1
130 147 148 1
131 147 149 1
132 147 150 1
133 151 152 1
134 151 153 2
135 151 154 1
136 154 155 1
137 154 156 1
138 154 157 1
139 158 159 1
140 158 160 2
141 158 161 1
142 161 162 1
143 161 163 1
144 161 164 1
145 165 166 1
146 165 167 2
147 165 168 1
148 168 169 1
149 168 170 1
150 168 171 1
151 172 173 1
152 172 174 2
153 172 175 1
154 175 176 1
155 175 177 1
156 175 178 1
157 179 180 1
158 179 181 2
159 179 182 1
160 182 183 1
161 182 184 1
162 182 185 1
163 186 187 1
164 186 188 2
165 186 189 1
166 189 190 1
167 189 191 1
168 189 192 1
169 193 194 1
170 193 195 2
171 193 196 1
172 196 197 1
173 196 198 1
174 196 199 1
175 200 201 1
176 200 202 2
177 200 203 1
178 203 204 1
179 203 205 1
180 203 206 1
181 207 208 1
182 207 209 2
183 207 210 1
184 210 211 1
185 210 212 1
186 210 213 1
187 214 215 1
188 214 216 2
189 214 217 1
190 217 218 1
191 217 219 1
192 217 220 1
193 221 222 1
194 221 223 2
195 221 224 1
196 224 225 1
197 224 226 1
198 224 227 1
199 228 229 1
200 228 230 2
201 228 231 1
202 231 232 1
203 231 233 1
204 231 234 1
205 235 236 1
206 235 237 2
207 235 238 1
208 238 239 1
209 238 240 1
210 238 241 1
211 242 243 1
212 242 244 2
213 242 245 1
214 245 246 1
215 245 247 1
216 245 248 1
217 249 250 1
218 249 251 2
219 249 252 1
220 252 253 1
221 252 254 1
222 252 255 1
223 256 257 1
224 256 258 2
225 256 259 1
226 259 260 1
227 259 261 1
228 259 262 1
229 263 264 1
230 263 265 2
231 263 266 1
232 266 267 1
233 266 268 1
234 266 269 1
235 270 271 1
236 270 272 2
237 270 273 1
238 273 274 1
239 273 275 1
240 273 276 1
241 277 278 1
242 277 279 2
243 277 280 1
244 280 281 1
245 280 282 1
246 280 283 1
247 284 285 1
248 284 286 2
249 284 287 1
250 287 288 1
251 287 289 1
252 287 290 1
253 291 292 1
254 291 293 2
255 291 294 1
256 294 295 1
257 294 296 1
258 294 297 1
259 298 299 1
260 298 300 2
261 298 301 1
262 301 302 1
263 301 303 1
264 301 304 1
265 305 306 1
266 305 307 2
267 305 308 1
268 308 309 1
269 308 310 1
270 308 311 1
271 312 313 1
272 312 314 2
273 312 315 1
274 315 316 1
275 315 317 1
276 315 318 1
277 319 320 1
278 319 321 2
279 319 322 1
280 322 323 1
281 322 324 1
282 322 325 1
283 326 327 1
284 326 328 2
285 326 329 1
286 329 330 1
287 329 331 1
288 329 332 1
289 333 334 1
290 333 335 2
291 333 336 1
292 336 337 1
293 336 338 1
294 336 339 1
295 340 341 1
296 340 342 2
297 340 343 1
298 343 344 1
299 343 345 1
300 343 346 1
301 347 348 1
302 347 349 2
303 347 350 1
304 350 351 1
305 350 352 1
306 350 353 1
