@<TRIPOS>MOLECULE
Molecule Name
360 312
SMALL
NO_CHARGES

@<TRIPOS>ATOM
1 C1	0.0000	0.0000	0.0000 C
2 O2	-1.2291	0.0000	0.0000 O
3 O3	0.7352	1.1552	0.0000 O
4 H4	1.6938	0.8931	0.0110 H
5 N5	2.2937	-0.9966	-0.0600 N
6 C6	4.3264	-1.2975	-1.3542 C
7 H7	4.9387	-1.5024	-0.4856 H
8 H8	4.8366	-1.2720	-2.3088 H
9 C9	3.0003	-1.0568	-1.2920 C
10 C10	2.1883	-0.7612	-2.5344 C
11 H11	1.6350	0.1810	-2.4407 H
12 H12	2.8486	-0.6815	-3.4004 H
13 H13	1.4567	-1.5502	-2.7497 H
14 C14	1.8555	-1.4869	2.2293 C
15 C15	2.9868	-1.3898	1.1948 C
16 C16	0.8350	-1.2926	0.0333 C
17 C17	0.6718	-2.0187	1.3955 C
18 H18	2.1145	-2.1442	3.0638 H
19 H19	1.6223	-0.4975	2.6408 H
20 H20	3.4868	-2.3620	1.0621 H
21 H21	3.7527	-0.6521	1.4544 H
22 H22	0.4859	-1.9242	-0.7878 H
23 H23	-0.3076	-1.8236	1.8380 H
24 H24	0.7692	-3.0998	1.2445 H
25 C25	-2.4776	-2.9640	-1.5672 C
26 H26	-2.8801	-1.9895	-1.2312 H
27 O27	-1.3005	-3.2617	-1.3349 O
28 C28	-3.4500	-3.8478	-2.2969 C
29 H29	-3.8315	-3.3335	-3.1891 H
30 H30	-2.9702	-4.7840	-2.5899 H
31 H31	-4.3179	-4.0616	-1.6591 H
32 C32	3.5112	3.6633	-0.2068 C
33 H33	4.5214	4.1150	-0.1971 H
34 O34	3.3821	2.4339	-0.2154 O
35 C35	2.3674	4.6384	-0.2085 C
36 H36	2.4332	5.2960	-1.0855 H
37 H37	1.4129	4.1080	-0.2182 H
38 H38	2.4214	5.2852	0.6773 H
39 C39	-2.7190	-1.8443	-2.3636 C
40 H40	-2.4507	-1.0554	-1.6354 H
41 O41	-1.9682	-2.8113	-2.5344 O
42 C42	-4.0188	-1.6384	-3.0896 C
43 H43	-3.9978	-0.6880	-3.6395 H
44 H44	-4.2030	-2.4605	-3.7845 H
45 H45	-4.8461	-1.5704	-2.3708 H
46 C46	2.7345	2.3669	2.7367 C
47 H47	1.7300	2.6526	2.3706 H
48 O48	3.3949	1.5144	2.1326 O
49 C49	3.1966	3.0789	3.9771 C
50 H50	2.4921	2.8993	4.8002 H
51 H51	4.1929	2.7369	4.2654 H
52 H52	3.2139	4.1634	3.8058 H
53 C53	2.8565	3.3315	-1.6173 C
54 H54	1.8400	3.3568	-2.0539 H
55 O55	3.1814	2.4132	-0.8563 O
56 C56	3.7599	4.4640	-2.0177 C
57 H57	3.3113	5.4245	-1.7307 H
58 H58	4.7378	4.3591	-1.5429 H
59 H59	3.8797	4.4837	-3.1090 H
60 C60	0.6575	-5.0775	-2.2268 C
61 H61	0.7422	-5.1319	-3.3288 H
62 O62	0.9035	-4.0188	-1.6379 O
63 C63	0.2358	-6.3502	-1.5475 C
64 H64	0.9488	-7.1538	-1.7752 H
65 H65	0.1783	-6.2057	-0.4666 H
66 H66	-0.7411	-6.6759	-1.9289 H
67 C67	3.8710	2.2764	3.0587 C
68 H68	3.9240	1.8989	4.0976 H
69 O69	3.5085	1.5271	2.1449 O
70 C70	4.2624	3.7157	2.8735 C
71 H71	5.2922	3.8746	3.2204 H
72 H72	4.1808	4.0019	1.8228 H
73 H73	3.6190	4.3634	3.4836 H
74 C74	-1.4496	-1.8953	-3.1876 C
75 H75	-0.6399	-1.3077	-3.6607 H
76 O76	-1.1934	-2.6631	-2.2533 O
77 C77	-2.8225	-1.6817	-3.7606 C
78 H78	-2.8282	-1.9309	-4.8302 H
79 H79	-3.5558	-2.2981	-3.2362 H
80 H80	-3.1048	-0.6236	-3.6803 H
81 C81	-0.1798	-5.2256	-1.2742 C
82 H82	-0.9793	-5.3605	-0.5211 H
83 O83	0.2735	-4.0983	-1.5017 O
84 C84	0.2800	-6.4814	-1.9604 C
85 H85	-0.5642	-6.9631	-2.4715 H
86 H86	1.0666	-6.2558	-2.6835 H
87 H87	0.6545	-7.2007	-1.2201 H
88 C88	-4.3718	-1.0973	2.2008 C
89 H89	-5.2583	-0.9102	2.8361 H
90 O90	-3.4996	-1.8907	2.5722 O
91 C91	-4.3309	-0.3330	0.9073 C
92 H92	-4.3612	0.7467	1.1056 H
93 H93	-3.4262	-0.5781	0.3469 H
94 H94	-5.2157	-0.5689	0.3012 H
95 C95	3.0934	3.2576	-0.3087 C
96 H96	2.1578	3.6686	-0.7334 H
97 O97	3.4991	2.1453	-0.6638 O
98 C98	3.7896	4.1371	0.6918 C
99 H99	3.1209	4.3512	1.5362 H
100 H100	4.6990	3.6551	1.0569 H
101 H101	4.0419	5.1030	0.2345 H
102 C102	1.8978	-5.4412	-1.0806 C
103 H103	1.0688	-6.0003	-1.5548 H
104 O104	1.6581	-4.4414	-0.3944 O
105 C105	3.2748	-5.9861	-1.3375 C
106 H106	3.4775	-6.0064	-2.4167 H
107 H107	4.0275	-5.3758	-0.8340 H
108 H108	3.3428	-7.0231	-0.9828 H
109 C109	0.6842	3.3853	-2.7567 C
110 H110	0.9525	4.1742	-2.0284 H
111 O111	1.4350	2.4183	-2.9274 O
112 C112	-0.6156	3.5912	-3.4827 C
113 H113	-0.5946	4.5416	-4.0325 H
114 H114	-0.7998	2.7691	-4.1775 H
115 H115	-1.4429	3.6592	-2.7638 H
116 C116	2.1703	-6.2671	0.5936 C
117 H117	1.6858	-7.1023	1.1341 H
118 O118	1.7279	-5.1181	0.7036 O
119 C119	3.3590	-6.6438	-0.2457 C
120 H120	3.0685	-7.3880	-0.9992 H
121 H121	3.7723	-5.7624	-0.7405 H
122 H122	4.1304	-7.1114	0.3805 H
123 C123	-2.8610	2.3483	1.3421 C
124 H124	-3.0931	2.4459	0.2646 H
125 O125	-3.6644	1.7954	2.1016 O
126 C126	-1.5412	2.9237	1.7734 C
127 H127	-1.4989	3.9942	1.5317 H
128 H128	-1.3954	2.7837	2.8466 H
129 H129	-0.7216	2.4422	1.2236 H
130 C130	1.0242	1.7149	4.7538 C
131 H131	0.4305	1.7735	5.6859 H
132 O132	1.7805	0.7565	4.5600 O
133 C133	0.8330	2.8549	3.7932 C
134 H134	1.0915	3.8053	4.2789 H
135 H135	1.4540	2.7154	2.9058 H
136 H136	-0.2222	2.9268	3.4977 H
137 C137	-0.4955	-6.0787	0.7200 C
138 H138	-1.4192	-5.6496	0.2871 H
139 O139	0.4852	-5.3556	0.9281 O
140 C140	-0.5444	-7.5514	1.0163 C
141 H141	-0.7599	-8.1143	0.0983 H
142 H142	0.4046	-7.8879	1.4390 H
143 H143	-1.3594	-7.7681	1.7197 H
144 C144	3.4927	-5.3859	2.8336 C
145 H145	4.2155	-5.6267	2.0310 H
146 O146	2.9545	-4.2736	2.8696 O
147 C147	3.2399	-6.4854	3.8267 C
148 H148	4.1790	-6.7746	4.3170 H
149 H149	2.5173	-6.1622	4.5791 H
150 H150	2.8625	-7.3792	3.3125 H
151 C151	0.2166	0.9680	5.3931 C
152 H152	0.2122	0.8547	6.4939 H
153 O153	0.9947	0.2986	4.7043 O
154 C154	-0.7650	1.9641	4.8422 C
155 H155	-0.5732	2.9581	5.2678 H
156 H156	-0.6921	2.0106	3.7536 H
157 H157	-1.7872	1.6870	5.1323 H
158 C158	5.2838	1.4365	3.6349 C
159 H159	4.4515	2.1205	3.8876 H
160 O160	5.1853	0.6706	2.6697 O
161 C161	6.4862	1.5227	4.5327 C
162 H162	6.1986	1.3084	5.5706 H
163 H163	7.2546	0.8165	4.2114 H
164 H164	6.8938	2.5423	4.5209 H
165 C165	4.9560	1.8127	0.1217 C
166 H166	5.2231	0.9951	0.8180 H
167 O167	3.8181	1.8715	-0.3576 O
168 C168	6.0539	2.7964	-0.1713 C
169 H169	6.9203	2.2777	-0.6030 H
170 H170	5.7038	3.5650	-0.8636 H
171 H171	6.3977	3.2669	0.7594 H
172 C172	-3.8868	2.2148	-1.1316 C
173 H173	-3.9774	1.8854	-0.0791 H
174 O174	-4.8943	2.3020	-1.8425 O
175 C175	-2.4914	2.5306	-1.5920 C
176 H176	-1.8467	1.6493	-1.4751 H
177 H177	-2.4959	2.8460	-2.6375 H
178 H178	-2.0587	3.3245	-0.9688 H
179 C179	2.1395	-3.3527	5.9877 C
180 H180	1.4050	-2.5632	6.2366 H
181 O181	2.3852	-3.6202	4.8061 O
182 C182	2.7783	-4.0351	7.1646 C
183 H183	2.0086	-4.5002	7.7949 H
184 H184	3.4858	-4.7957	6.8278 H
185 H185	3.2986	-3.2987	7.7914 H
186 C186	1.0021	5.2972	-0.9567 C
187 H187	0.5703	5.0798	-1.9521 H
188 O188	1.9073	6.1313	-0.8426 O
189 C189	0.4127	4.5203	0.1870 C
190 H190	0.5334	3.4426	0.0134 H
191 H191	0.8958	4.7971	1.1265 H
192 H192	-0.6665	4.7111	0.2567 H
193 C193	1.1251	-6.4056	2.1078 C
194 H194	0.4919	-6.5046	3.0099 H
195 O195	1.0957	-5.3651	1.4411 O
196 C196	1.9821	-7.5977	1.7859 C
197 H197	1.3535	-8.4864	1.6406 H
198 H198	2.5708	-7.4132	0.8848 H
199 H199	2.6532	-7.8183	2.6266 H
200 C200	4.8826	-5.1614	0.5066 C
201 H201	5.9056	-5.5834	0.4937 H
202 O202	4.5499	-4.3698	1.3958 O
203 C203	3.9806	-5.6198	-0.6049 C
204 H204	3.8771	-6.7128	-0.5807 H
205 H205	2.9962	-5.1558	-0.5143 H
206 H206	4.4209	-5.3646	-1.5780 H
207 C207	5.3123	-4.7233	2.1260 C
208 H208	6.1070	-4.9367	2.8660 H
209 O209	4.3676	-3.9850	2.4266 O
210 C210	5.4824	-5.3839	0.7867 C
211 H211	5.5247	-6.4747	0.9064 H
212 H212	4.6570	-5.1193	0.1223 H
213 H213	6.4343	-5.0778	0.3328 H
214 C214	1.3093	-5.0548	-1.2564 C
215 H215	1.8389	-5.9054	-0.7866 H
216 O216	0.4686	-4.4166	-0.6129 O
217 C217	1.6905	-4.7636	-2.6808 C
218 H218	1.5035	-5.6445	-3.3094 H
219 H219	1.1218	-3.9129	-3.0624 H
220 H220	2.7653	-4.5490	-2.7477 H
221 C221	-2.2968	-3.2082	-1.7307 C
222 H222	-2.0725	-4.2668	-1.9623 H
223 O223	-1.4524	-2.3330	-1.9525 O
224 C224	-3.6583	-2.9483	-1.1496 C
225 H225	-3.7852	-3.5145	-0.2172 H
226 H226	-3.7931	-1.8826	-0.9531 H
227 H227	-4.4368	-3.2976	-1.8408 H
228 C228	3.1405	-5.1683	-0.1618 C
229 H229	3.8928	-4.4785	0.2658 H
230 O230	2.0741	-4.7257	-0.6034 O
231 C231	3.5197	-6.6227	-0.1549 C
232 H232	3.7142	-6.9573	0.8728 H
233 H233	2.7230	-7.2275	-0.5933 H
234 H234	4.4500	-6.7730	-0.7185 H
235 C235	3.9221	-2.0934	-6.2168 C
236 H236	3.6670	-3.1417	-5.9704 H
237 O237	3.9713	-1.2410	-5.3229 O
238 C238	4.1897	-1.8181	-7.6700 C
239 H239	3.3113	-2.0848	-8.2728 H
240 H240	4.4323	-0.7641	-7.8210 H
241 H241	5.0198	-2.4427	-8.0259 H
242 C242	1.3110	-5.2808	-0.7050 C
243 H243	2.3192	-5.3016	-0.2492 H
244 O244	0.7016	-4.2107	-0.8129 O
245 C245	0.7791	-6.6116	-1.1579 C
246 H246	0.7337	-7.3084	-0.3103 H
247 H247	-0.2160	-6.4975	-1.5930 H
248 H248	1.4568	-7.0570	-1.8982 H
249 C249	1.3886	3.8508	-0.4438 C
250 H250	0.6041	3.5896	-1.1793 H
251 O251	2.3364	3.0817	-0.2491 O
252 C252	1.2013	5.1650	0.2613 C
253 H253	0.2432	5.1724	0.7979 H
254 H254	2.0176	5.3409	0.9651 H
255 H255	1.1613	5.9834	-0.4698 H
256 C256	6.9485	-1.3497	-4.8536 C
257 H257	7.0981	-1.0197	-5.8992 H
258 O258	5.8069	-1.4289	-4.3861 O
259 C259	8.2032	-1.6764	-4.0933 C
260 H260	8.8644	-0.8001	-4.0616 H
261 H261	7.9626	-1.9917	-3.0759 H
262 H262	8.7581	-2.4737	-4.6053 H
263 C263	2.7379	-0.1992	-6.2264 C
264 H264	1.7123	-0.3656	-5.8456 H
265 O265	3.7137	-0.4683	-5.5168 O
266 C266	2.8275	0.3577	-7.6196 C
267 H267	2.3043	1.3216	-7.6753 H
268 H268	3.8713	0.4891	-7.9124 H
269 H269	2.3273	-0.3157	-8.3282 H
270 C270	3.6495	1.0676	4.1027 C
271 H271	2.8713	0.3329	4.3840 H
272 O272	3.8367	1.3474	2.9133 O
273 C273	4.4195	1.6636	5.2477 C
274 H274	4.9189	0.8707	5.8203 H
275 H275	5.1625	2.3744	4.8799 H
276 H276	3.7344	2.1708	5.9400 H
277 C277	5.7427	2.0041	0.4568 C
278 H278	5.8058	2.6514	-0.4385 H
279 O279	4.8794	1.1220	0.5241 O
280 C280	6.7565	2.2854	1.5302 C
281 H281	6.6609	3.3230	1.8772 H
282 H282	6.6213	1.6030	2.3720 H
283 H283	7.7724	2.1782	1.1275 H
284 C284	2.0913	1.5578	-5.6793 C
285 H285	1.9512	2.3499	-4.9193 H
286 O286	2.6208	0.4856	-5.3665 O
287 C287	1.6010	1.8932	-7.0599 C
288 H288	2.1111	2.7908	-7.4342 H
289 H289	1.7785	1.0589	-7.7418 H
290 H290	0.5282	2.1263	-7.0333 H
291 C291	-1.1626	3.3085	-3.7904 C
292 H292	-1.9918	3.1379	-3.0778 H
293 O293	-1.4016	3.7115	-4.9343 O
294 C294	0.2140	3.0181	-3.2615 C
295 H295	0.2805	1.9711	-2.9367 H
296 H296	0.9670	3.2132	-4.0280 H
297 H297	0.4174	3.6376	-2.3780 H
298 C298	3.4976	2.9864	1.5778 C
299 H299	2.4062	3.1441	1.6695 H
300 O300	4.1890	2.8333	2.5910 O
301 C301	4.0333	2.9764	0.1735 C
302 H302	3.8037	3.9277	-0.3249 H
303 H303	5.1134	2.8155	0.1775 H
304 H304	3.5445	2.1861	-0.4115 H
305 C305	7.1135	-1.3921	1.8316 C
306 H306	7.7746	-0.8548	2.5379 H
307 O307	6.7224	-0.8325	0.8011 O
308 C308	6.7540	-2.7975	2.2248 C
309 H309	6.2500	-2.7994	3.2006 H
310 H310	6.1023	-3.2496	1.4742 H
311 H311	7.6634	-3.4026	2.3368 H
312 C312	-1.1577	3.3603	3.3596 C
313 H313	-1.6423	2.5251	3.9001 H
314 O314	-1.6001	4.5093	3.4696 O
315 C315	0.0309	2.9836	2.5203 C
316 H316	-0.2596	2.2394	1.7667 H
317 H317	0.4443	3.8650	2.0255 H
318 H318	0.8023	2.5160	3.1465 H
319 C319	3.4544	4.5059	-1.1847 C
320 H320	2.9184	5.4109	-0.8408 H
321 O321	4.5852	4.6039	-1.6742 O
322 C322	2.7135	3.2101	-1.0086 C
323 H323	1.7596	3.2438	-1.5518 H
324 H324	3.3140	2.3738	-1.3728 H
325 H325	2.4695	3.0556	0.0508 H
326 C326	-0.3577	-2.1117	-4.6923 C
327 H327	-0.8675	-2.2470	-3.7195 H
328 O328	0.8438	-2.3796	-4.8049 O
329 C329	-1.2223	-1.5968	-5.8088 C
330 H330	-1.6536	-0.6247	-5.5348 H
331 H331	-0.6402	-1.4944	-6.7270 H
332 H332	-2.0646	-2.2802	-5.9800 H
333 C333	8.1152	-0.4502	-2.1217 C
334 H334	8.3153	-0.7489	-1.0751 H
335 O335	6.9543	-0.4143	-2.5448 O
336 C336	9.3292	-0.1092	-2.9397 C
337 H337	10.0132	-0.9677	-2.9762 H
338 H338	9.0398	0.1729	-3.9542 H
339 H339	9.8812	0.7159	-2.4703 H
340 C340	-3.2276	3.4700	1.4151 C
341 H341	-2.8493	4.5089	1.3689 H
342 O342	-4.3398	3.2365	1.9015 O
343 C343	-2.3062	2.4215	0.8578 C
344 H344	-1.3476	2.4380	1.3934 H
345 H345	-2.7578	1.4309	0.9438 H
346 H346	-2.0840	2.6356	-0.1961 H
347 C347	7.9805	-0.1968	1.0139 C
348 H348	7.7380	-1.2618	1.1920 H
349 O349	8.6238	0.4414	1.8546 O
350 C350	7.4780	0.3719	-0.2835 C
351 H351	6.3852	0.2781	-0.3388 H
352 H352	7.7614	1.4225	-0.3756 H
353 H353	7.8880	-0.1965	-1.1289 H
354 C354	5.7674	2.9778	2.2924 C
355 H355	6.0332	3.8810	1.7109 H
356 O356	5.6502	3.0441	3.5212 O
357 C357	5.5722	1.7244	1.4861 C
358 H358	6.4878	1.4884	0.9275 H
359 H359	5.3135	0.8871	2.1377 H
360 H360	4.7773	1.8734	0.7433 H
@<TRIPOS>BOND
1 1 2 2
2 1 3 1
3 1 16 1
4 3 4 1
5 5 9 1
6 5 15 1
7 5 16 1
8 6 7 1
9 6 8 1
10 6 9 2
11 9 10 1
12 10 11 1
13 10 12 1
14 10 13 1
15 14 15 1
16 14 17 1
17 14 18 1
18 14 19 1
19 15 20 1
20 15 21 1
21 16 17 1
22 16 22 1
23 17 23 1
24 17 24 1
25 25 26 1
26 25 27 2
27 25 28 1
28 28 29 1
29 28 30 1
30 28 31 1
31 32 33 1
32 32 34 2
33 32 35 1
34 35 36 1
35 35 37 1
36 35 38 1
37 39 40 1
38 39 41 2
39 39 42 1
40 42 43 1
41 42 44 1
42 42 45 1
43 46 47 1
44 46 48 2
45 46 49 1
46 49 50 1
47 49 51 1
48 49 52 1
49 53 54 1
50 53 55 2
51 53 56 1
52 56 57 1
53 56 58 1
54 56 59 1
55 60 61 1
56 60 62 2
57 60 63 1
58 63 64 1
59 63 65 1
60 63 66 1
61 67 68 1
62 67 69 2
63 67 70 1
64 70 71 1
65 70 72 1
66 70 73 1
67 74 75 1
68 74 76 2
69 74 77 1
70 77 78 1
71 77 79 1
72 77 80 1
73 81 82 1
74 81 83 2
75 81 84 1
76 84 85 1
77 84 86 1
78 84 87 1
79 88 89 1
80 88 90 2
81 88 91 1
82 91 92 1
83 91 93 1
84 91 94 1
85 95 96 1
86 95 97 2
87 95 98 1
88 98 99 1
89 98 100 1
90 98 101 1
91 102 103 1
92 102 104 2
93 102 105 1
94 105 106 1
95 105 107 1
96 105 108 1
97 109 110 1
98 109 111 2
99 109 112 1
100 112 113 1
101 112 114 1
102 112 115 1
103 116 117 1
104 116 118 2
105 116 119 1
106 119 120 1
107 119 121 1
108 119 122 1
109 123 124 1
110 123 125 2
111 123 126 1
112 126 127 1
113 126 128 1
114 126 129 1
115 130 131 1
116 130 132 2
117 130 133 1
118 133 134 1
119 133 135 1
120 133 136 1
121 137 138 1
122 137 139 2
123 137 140 1
124 140 141 1
125 140 142 1
126 140 143 1
127 144 145 1
128 144 146 2
129 144 147 1
130 147 148 1
131 147 149 1
132 147 150 1
133 151 152 1
134 151 153 2
135 151 154 1
136 154 155 1
137 154 156 1
138 154 157 1
139 158 159 1
140 158 160 2
141 158 161 1
142 161 162 1
143 161 163 1
144 161 164 1
145 165 166 1
146 165 167 2
147 165 168 1
148 168 169 1
149 168 170 1
150 168 171 1
151 172 173 1
152 172 174 2
153 172 175 1
154 175 176 1
155 175 177 1
156 175 178 1
157 179 180 1
158 179 181 2
159 179 182 1
160 182 183 1
161 182 184 1
162 182 185 1
163 186 187 1
164 186 188 2
165 186 189 1
166 189 190 1
167 189 191 1
168 189 192 1
169 193 194 1
170 193 195 2
171 193 196 1
172 196 197 1
173 196 198 1
174 196 199 1
175 200 201 1
176 200 202 2
177 200 203 1
178 203 204 1
179 203 205 1
180 203 206 1
181 207 208 1
182 207 209 2
183 207 210 1
184 210 211 1
185 210 212 1
186 210 213 1
187 214 215 1
188 214 216 2
189 214 217 1
190 217 218 1
191 217 219 1
192 217 220 1
193 221 222 1
194 221 223 2
195 221 224 1
196 224 225 1
197 224 226 1
198 224 227 1
199 228 229 1
200 228 230 2
201 228 231 1
202 231 232 1
203 231 233 1
204 231 234 1
205 235 236 1
206 235 237 2
207 235 238 1
208 238 239 1
209 238 240 1
210 238 241 1
211 242 243 1
212 242 244 2
213 242 245 1
214 245 246 1
215 245 247 1
216 245 248 1
217 249 250 1
218 249 251 2
219 249 252 1
220 252 253 1
221 252 254 1
222 252 255 1
223 256 257 1
224 256 258 2
225 256 259 1
226 259 260 1
227 259 261 1
228 259 262 1
229 263 264 1
230 263 265 2
231 263 266 1
232 266 267 1
233 266 268 1
234 266 269 1
235 270 271 1
236 270 272 2
237 270 273 1
238 273 274 1
239 273 275 1
240 273 276 1
241 277 278 1
242 277 279 2
243 277 280 1
244 280 281 1
245 280 282 1
246 280 283 1
247 284 285 1
248 284 286 2
249 284 287 1
250 287 288 1
251 287 289 1
252 287 290 1
253 291 292 1
254 291 293 2
255 291 294 1
256 294 295 1
257 294 296 1
258 294 297 1
259 298 299 1
260 298 300 2
261 298 301 1
262 301 302 1
263 301 303 1
264 301 304 1
265 305 306 1
266 305 307 2
267 305 308 1
268 308 309 1
269 308 310 1
270 308 311 1
271 312 313 1
272 312 314 2
273 312 315 1
274 315 316 1
275 315 317 1
276 315 318 1
277 319 320 1
278 319 321 2
279 319 322 1
280 322 323 1
281 322 324 1
282 322 325 1
283 326 327 1
284 326 328 2
285 326 329 1
286 329 330 1
287 329 331 1
288 329 332 1
289 333 334 1
290 333 335 2
291 333 336 1
292 336 337 1
293 336 338 1
294 336 339 1
295 340 341 1
296 340 342 2
297 340 343 1
298 343 344 1
299 343 345 1
300 343 346 1
301 347 348 1
302 347 349 2
303 347 350 1
304 350 351 1
305 350 352 1
306 350 353 1
307 354 355 1
308 354 356 2
309 354 357 1
310 357 358 1
311 357 359 1
312 357 360 1
