@<TRIPOS>MOLECULE
Molecule Name
360 312
SMALL
NO_CHARGES

@<TRIPOS>ATOM
1 C1	0.0000	0.0000	0.0000 C
2 O2	-1.2277	0.0000	0.0000 O
3 O3	0.7282	1.1653	0.0000 O
4 H4	1.6891	0.9384	-0.0528 H
5 N5	2.2374	-1.0721	-0.3625 N
6 C6	3.8790	-0.9407	-2.1454 C
7 H7	4.7241	-1.0195	-1.4734 H
8 H8	4.1074	-0.8273	-3.1973 H
9 C9	2.5932	-0.9425	-1.7310 C
10 C10	1.4550	-0.7647	-2.7128 C
11 H11	0.8870	0.1533	-2.5204 H
12 H12	1.8526	-0.7002	-3.7276 H
13 H13	0.7474	-1.6019	-2.6833 H
14 C14	2.3493	-2.4254	1.6128 C
15 C15	3.2143	-1.6524	0.5997 C
16 C16	0.8410	-1.2749	0.0897 C
17 C17	0.9956	-1.6932	1.5790 C
18 H18	2.2252	-3.4639	1.2835 H
19 H19	2.7911	-2.4430	2.6133 H
20 H20	3.9089	-2.3108	0.0665 H
21 H21	3.8053	-0.8621	1.0809 H
22 H22	0.3197	-2.0567	-0.4748 H
23 H23	1.0306	-0.7982	2.2122 H
24 H24	0.1530	-2.3044	1.9090 H
25 C25	-2.7298	-1.8298	-2.2120 C
26 H26	-3.1099	-1.1197	-1.4531 H
27 O27	-1.5178	-1.8967	-2.4460 O
28 C28	-3.7754	-2.6639	-2.8975 C
29 H29	-4.5048	-2.0158	-3.4015 H
30 H30	-3.3133	-3.3329	-3.6266 H
31 H31	-4.3332	-3.2531	-2.1575 H
32 C32	-2.6855	-1.0976	3.4377 C
33 H33	-3.1677	-1.3077	4.4113 H
34 O34	-2.0388	-1.9806	2.8631 O
35 C35	-2.8816	0.2947	2.9065 C
36 H36	-2.4922	1.0304	3.6228 H
37 H37	-2.3743	0.4127	1.9467 H
38 H38	-3.9526	0.5056	2.7864 H
39 C39	5.0696	1.8663	0.8472 C
40 H40	5.7926	1.2815	0.2472 H
41 O41	3.9279	1.4324	1.0375 O
42 C42	5.5825	3.1739	1.3823 C
43 H43	5.9086	3.8185	0.5552 H
44 H44	4.8067	3.6814	1.9595 H
45 H45	6.4623	3.0031	2.0168 H
46 C46	-1.4529	-3.9546	-1.0776 C
47 H47	-1.7404	-2.9012	-1.2572 H
48 O48	-0.2735	-4.2444	-0.8471 O
49 C49	-2.5771	-4.9504	-1.1377 C
50 H50	-3.0618	-4.9136	-2.1225 H
51 H51	-2.2044	-5.9595	-0.9495 H
52 H52	-3.3462	-4.6967	-0.3962 H
53 C53	3.6635	2.3077	1.6996 C
54 H54	2.6155	2.2374	2.0481 H
55 O55	4.1448	1.4108	0.9983 O
56 C56	4.4092	3.5367	2.1384 C
57 H57	4.4313	3.5935	3.2349 H
58 H58	5.4301	3.5230	1.7510 H
59 H59	3.8922	4.4385	1.7847 H
60 C60	-1.0332	-4.1854	-1.9142 C
61 H61	-1.7817	-3.4443	-1.5747 H
62 O62	0.1573	-4.0469	-1.6117 O
63 C63	-1.5749	-5.3203	-2.7373 C
64 H64	-2.0717	-4.9314	-3.6361 H
65 H65	-0.7709	-6.0000	-3.0273 H
66 H66	-2.3358	-5.8703	-2.1676 H
67 C67	4.3140	1.9903	0.4518 C
68 H68	4.9399	1.4735	-0.3003 H
69 O69	3.9592	1.3966	1.4763 O
70 C70	3.9540	3.4127	0.1255 C
71 H71	3.4107	3.4554	-0.8280 H
72 H72	3.3384	3.8427	0.9184 H
73 H73	4.8646	4.0130	-0.0015 H
74 C74	-3.1389	-2.2772	2.8741 C
75 H75	-3.3445	-1.2054	3.0572 H
76 O76	-1.9797	-2.6624	2.6851 O
77 C77	-4.3437	-3.1758	2.8770 C
78 H78	-5.0591	-2.8508	2.1097 H
79 H79	-4.0493	-4.2106	2.6895 H
80 H80	-4.8625	-3.1088	3.8425 H
81 C81	-1.8726	2.3611	1.6632 C
82 H82	-1.2607	2.9370	0.9432 H
83 O83	-1.4352	2.1192	2.7938 O
84 C84	-3.2195	1.9225	1.1608 C
85 H85	-3.1032	1.2965	0.2660 H
86 H86	-3.7521	1.3635	1.9331 H
87 H87	-3.8136	2.7960	0.8614 H
88 C88	-2.8367	1.6680	-3.4281 C
89 H89	-1.9551	2.3248	-3.3021 H
90 O90	-3.2000	1.3287	-4.5598 O
91 C91	-3.5171	1.2485	-2.1552 C
92 H92	-3.8529	2.1328	-1.5974 H
93 H93	-4.3723	0.6052	-2.3729 H
94 H94	-2.8093	0.7149	-1.5070 H
95 C95	-1.5295	-5.1406	0.9863 C
96 H96	-2.5564	-4.7765	0.7925 H
97 O97	-0.6070	-4.3344	1.1513 O
98 C98	-1.3707	-6.6346	1.0277 C
99 H99	-1.6927	-7.0751	0.0746 H
100 H100	-0.3304	-6.9032	1.2233 H
101 H101	-2.0151	-7.0613	1.8078 H
102 C102	-1.9623	-4.8091	2.6937 C
103 H103	-2.4871	-4.2789	3.5111 H
104 O104	-1.1116	-4.2192	2.0182 O
105 C105	-2.3626	-6.2438	2.4927 C
106 H106	-3.4378	-6.3095	2.2792 H
107 H107	-1.7973	-6.6867	1.6699 H
108 H108	-2.1864	-6.8173	3.4124 H
109 C109	-1.0464	-3.9838	-3.3667 C
110 H110	-0.2653	-4.2383	-4.1081 H
111 O111	-0.7595	-3.3104	-2.3706 O
112 C112	-2.4215	-4.5087	-3.6709 C
113 H113	-2.3987	-5.6038	-3.7497 H
114 H114	-3.1254	-4.2114	-2.8907 H
115 H115	-2.7646	-4.1282	-4.6421 H
116 C116	5.7139	1.9669	1.2999 C
117 H117	6.5419	1.6391	1.9569 H
118 O118	4.9126	1.1386	0.8528 O
119 C119	5.6590	3.4419	1.0167 C
120 H120	6.5937	3.7705	0.5430 H
121 H121	4.8151	3.6747	0.3638 H
122 H122	5.5652	4.0035	1.9557 H
123 C123	4.0192	2.1860	1.4634 C
124 H124	3.6914	1.9533	0.4324 H
125 O125	3.9717	1.3159	2.3401 O
126 C126	4.5039	3.5913	1.6856 C
127 H127	3.7120	4.3084	1.4311 H
128 H128	4.8058	3.7316	2.7256 H
129 H129	5.3521	3.8074	1.0226 H
130 C130	2.1510	3.3022	1.6183 C
131 H131	1.0602	3.4766	1.5530 H
132 O132	2.7644	2.8430	0.6483 O
133 C133	2.7847	3.6590	2.9337 C
134 H134	2.3188	3.0845	3.7454 H
135 H135	3.8574	3.4557	2.9089 H
136 H136	2.6153	4.7203	3.1589 H
137 C137	1.5852	-6.2230	-0.6579 C
138 H138	0.6516	-6.4492	-1.2072 H
139 O139	1.5697	-5.4300	0.2902 O
140 C140	2.8133	-6.9363	-1.1498 C
141 H141	2.9947	-6.6919	-2.2050 H
142 H142	3.6836	-6.6551	-0.5530 H
143 H143	2.6652	-8.0231	-1.0972 H
144 C144	1.2970	0.7159	4.9929 C
145 H145	2.0117	1.5031	4.6865 H
146 O146	1.3317	-0.3963	4.4546 O
147 C147	0.3277	1.1080	6.0727 C
148 H148	-0.2668	1.9732	5.7504 H
149 H149	-0.3365	0.2746	6.3113 H
150 H150	0.8722	1.4161	6.9752 H
151 C151	3.3969	0.8687	3.7019 C
152 H152	2.3598	0.9693	3.3292 H
153 O153	4.1952	0.1255	3.1200 O
154 C154	3.7265	1.6813	4.9226 C
155 H155	3.0599	1.4060	5.7507 H
156 H156	4.7654	1.5218	5.2189 H
157 H157	3.5594	2.7480	4.7225 H
158 C158	5.7359	1.8493	2.0615 C
159 H159	5.9503	2.8152	1.5659 H
160 O160	5.2010	0.9328	1.4275 O
161 C161	6.1369	1.7619	3.5074 C
162 H162	5.6260	2.5410	4.0887 H
163 H163	5.8895	0.7790	3.9139 H
164 H164	7.2147	1.9440	3.6119 H
165 C165	6.7242	0.6911	-0.1732 C
166 H166	5.8984	1.3735	-0.4505 H
167 O167	6.5376	-0.5307	-0.1511 O
168 C168	8.0299	1.3580	0.1577 C
169 H169	7.8958	2.0561	0.9948 H
170 H170	8.7845	0.6129	0.4184 H
171 H171	8.3779	1.9521	-0.6977 H
172 C172	-1.8231	-4.5337	0.2340 C
173 H173	-1.2680	-5.1563	0.9612 H
174 O174	-1.2118	-3.7712	-0.5229 O
175 C175	-3.3173	-4.6951	0.2531 C
176 H176	-3.7106	-4.4524	1.2494 H
177 H177	-3.7815	-4.0465	-0.4928 H
178 H178	-3.5868	-5.7405	0.0522 H
179 C179	2.4126	-0.8394	-6.7834 C
180 H180	1.3061	-0.8474	-6.8004 H
181 O181	3.0158	-0.8339	-5.7045 O
182 C182	3.0794	-0.8360	-8.1304 C
183 H183	2.7611	0.0427	-8.7071 H
184 H184	4.1657	-0.8283	-8.0192 H
185 H185	2.7735	-1.7202	-8.7054 H
186 C186	-2.3528	2.3458	3.0530 C
187 H187	-2.8323	1.6282	3.7456 H
188 O188	-1.4782	3.1156	3.4660 O
189 C189	-2.8416	2.2978	1.6325 C
190 H190	-3.9220	2.4921	1.5983 H
191 H191	-2.3164	3.0357	1.0224 H
192 H192	-2.6866	1.2947	1.2135 H
193 C193	-3.0327	3.5209	-0.7409 C
194 H194	-3.9697	3.3283	-0.1846 H
195 O195	-3.0770	3.9235	-1.9089 O
196 C196	-1.7636	3.2595	0.0208 C
197 H197	-1.7308	2.2129	0.3519 H
198 H198	-0.8928	3.4750	-0.6019 H
199 H199	-1.7324	3.8795	0.9265 H
200 C200	2.4425	3.6441	-0.3716 C
201 H201	2.8306	3.5584	0.6612 H
202 O202	2.6118	2.7207	-1.1759 O
203 C203	1.7253	4.9265	-0.6881 C
204 H204	2.3930	5.7829	-0.5242 H
205 H205	1.3778	4.9247	-1.7234 H
206 H206	0.8700	5.0576	-0.0119 H
207 C207	1.6908	3.1890	-2.1696 C
208 H208	0.6219	3.0344	-2.4107 H
209 O209	2.3912	2.2333	-1.8172 O
210 C210	2.1859	4.6017	-2.3047 C
211 H211	1.6095	5.2680	-1.6490 H
212 H212	3.2458	4.6615	-2.0486 H
213 H213	2.0336	4.9586	-3.3319 H
214 C214	4.0064	-5.5251	-1.3940 C
215 H215	3.0834	-5.9790	-1.8024 H
216 O216	3.9565	-4.4346	-0.8141 O
217 C217	5.2643	-6.3211	-1.6014 C
218 H218	5.4348	-6.4852	-2.6738 H
219 H219	6.1215	-5.8010	-1.1687 H
220 H220	5.1636	-7.3130	-1.1412 H
221 C221	0.4684	2.8694	-2.7597 C
222 H222	-0.2192	2.0767	-3.1111 H
223 O223	1.6495	2.6008	-2.5129 O
224 C224	-0.1402	4.2364	-2.6179 C
225 H225	-0.9804	4.2042	-1.9115 H
226 H226	0.6062	4.9528	-2.2682 H
227 H227	-0.5487	4.5696	-3.5812 H
228 C228	4.7822	-2.0299	-6.2292 C
229 H229	4.1700	-2.5809	-6.9683 H
230 O230	4.2469	-1.2272	-5.4564 O
231 C231	6.2537	-2.3351	-6.2530 C
232 H232	6.6696	-2.1115	-7.2445 H
233 H233	6.7779	-1.7498	-5.4946 H
234 H234	6.4203	-3.4055	-6.0736 H
235 C235	-2.7876	-3.7001	-0.8067 C
236 H236	-3.6855	-3.0908	-1.0238 H
237 O237	-1.6764	-3.1632	-0.7371 O
238 C238	-3.0353	-5.1700	-0.6141 C
239 H239	-3.5020	-5.5952	-1.5127 H
240 H240	-2.0988	-5.6913	-0.4051 H
241 H241	-3.7390	-5.3290	0.2138 H
242 C242	0.9774	-0.2662	-6.4222 C
243 H243	0.1186	-0.5809	-5.7993 H
244 O244	2.1285	-0.3534	-5.9801 O
245 C245	0.6286	0.2517	-7.7894 C
246 H246	-0.0412	1.1180	-7.7054 H
247 H247	1.5322	0.5376	-8.3319 H
248 H248	0.0848	-0.5155	-8.3564 H
249 C249	5.9741	-4.4589	-0.1365 C
250 H250	5.0126	-4.9573	-0.3639 H
251 O251	6.0110	-3.2366	0.0443 O
252 C252	7.1719	-5.3646	-0.0715 C
253 H253	7.3008	-5.8893	-1.0276 H
254 H254	8.0728	-4.7912	0.1570 H
255 H255	7.0208	-6.1359	0.6954 H
256 C256	-4.0681	-1.3355	1.3091 C
257 H257	-3.1828	-0.8663	0.8393 H
258 O258	-5.1001	-1.5088	0.6512 O
259 C259	-3.9045	-1.7230	2.7521 C
260 H260	-3.6522	-0.8397	3.3539 H
261 H261	-4.8222	-2.1765	3.1325 H
262 H262	-3.0709	-2.4294	2.8611 H
263 C263	2.2546	-2.2548	-6.3535 C
264 H264	1.1566	-2.1192	-6.3762 H
265 O265	2.9356	-1.6569	-5.5128 O
266 C266	2.8118	-3.1888	-7.3909 C
267 H267	2.5532	-2.8330	-8.3972 H
268 H268	3.8972	-3.2626	-7.2953 H
269 H269	2.3631	-4.1851	-7.2820 H
270 C270	-4.7071	0.8966	-1.6857 C
271 H271	-5.1964	-0.0928	-1.6068 H
272 O272	-5.2773	1.9059	-1.2568 O
273 C273	-3.3501	0.8965	-2.3320 C
274 H274	-3.4167	0.4895	-3.3499 H
275 H275	-2.9436	1.9095	-2.3676 H
276 H276	-2.6660	0.2437	-1.7738 H
277 C277	-2.1379	4.2247	-1.3431 C
278 H278	-1.3264	4.9741	-1.4087 H
279 O279	-3.3042	4.5890	-1.1554 O
280 C280	-1.7088	2.7924	-1.4962 C
281 H281	-0.9710	2.5348	-0.7246 H
282 H282	-2.5696	2.1250	-1.4185 H
283 H283	-1.2159	2.6477	-2.4668 H
284 C284	-0.0786	5.4236	-0.6843 C
285 H285	0.6584	5.8920	-0.0046 H
286 O286	-0.6258	6.0976	-1.5643 O
287 C287	-0.3383	3.9622	-0.4477 C
288 H288	-0.7011	3.8042	0.5767 H
289 H289	-1.0746	3.5845	-1.1602 H
290 H290	0.5954	3.3923	-0.5446 H
291 C291	0.1876	-4.3251	-2.3552 C
292 H292	-0.2300	-3.6355	-3.1133 H
293 O293	1.3821	-4.2549	-2.0448 O
294 C294	-0.7873	-5.3067	-1.7679 C
295 H295	-1.2221	-5.9282	-2.5621 H
296 H296	-0.2918	-5.9442	-1.0326 H
297 H297	-1.6203	-4.7726	-1.2917 H
298 C298	5.0809	3.7173	0.4586 C
299 H299	4.6488	4.6053	0.9579 H
300 O300	6.2919	3.4850	0.5462 O
301 C301	4.1039	2.8627	-0.2990 C
302 H302	3.6057	3.4572	-1.0765 H
303 H303	4.6143	2.0130	-0.7573 H
304 H304	3.3169	2.5003	0.3757 H
305 C305	6.5744	-1.9304	1.1009 C
306 H306	6.4351	-2.5570	0.1995 H
307 O307	6.0989	-0.7901	1.1425 O
308 C308	7.3582	-2.5660	2.2148 C
309 H309	8.3594	-2.8453	1.8604 H
310 H310	7.4461	-1.8801	3.0601 H
311 H311	6.8675	-3.4926	2.5408 H
312 C312	1.7512	4.0579	-2.2513 C
313 H313	0.6532	4.1935	-2.2739 H
314 O314	2.4323	4.6558	-1.4106 O
315 C315	2.3085	3.1239	-3.2887 C
316 H316	2.0499	3.4797	-4.2950 H
317 H317	3.3938	3.0501	-3.1931 H
318 H318	1.8597	2.1277	-3.1798 H
319 C319	5.5349	-2.3898	3.3796 C
320 H320	4.8121	-2.0872	4.1611 H
321 O321	5.5026	-1.8556	2.2654 O
322 C322	6.5113	-3.4593	3.7819 C
323 H323	5.9729	-4.3658	4.0892 H
324 H324	7.1833	-3.6945	2.9538 H
325 H325	7.0968	-3.1289	4.6500 H
326 C326	4.2532	4.4291	0.8656 C
327 H327	3.6734	5.1347	0.2406 H
328 O328	4.8835	4.8428	1.8452 O
329 C329	4.2039	2.9909	0.4317 C
330 H330	4.5801	2.8933	-0.5955 H
331 H331	4.8008	2.3687	1.1019 H
332 H332	3.1654	2.6342	0.4240 H
333 C333	5.2725	2.2465	-3.8134 C
334 H334	5.0426	1.1650	-3.8585 H
335 O335	6.0868	2.6730	-2.9869 O
336 C336	4.5370	3.1053	-4.8036 C
337 H337	3.4530	3.0015	-4.6615 H
338 H338	4.8237	4.1527	-4.6885 H
339 H339	4.7556	2.7731	-5.8272 H
340 C340	2.7073	2.9871	3.6474 C
341 H341	1.7500	3.4387	3.9702 H
342 O342	3.7460	3.2216	4.2751 O
343 C343	2.6284	2.1050	2.4329 C
344 H344	2.2374	2.6732	1.5783 H
345 H345	3.6140	1.7040	2.1871 H
346 H346	1.9277	1.2787	2.6113 H
347 C347	-0.4161	3.1142	-4.9132 C
348 H348	-1.3368	2.5726	-4.6241 H
349 O349	-0.4475	3.9461	-5.8270 O
350 C350	0.8156	2.7597	-4.1281 C
351 H351	1.0302	1.6872	-4.2262 H
352 H352	1.6723	3.3391	-4.4787 H
353 H353	0.6512	2.9536	-3.0598 H
354 C354	8.0200	-3.8593	-2.2519 C
355 H355	8.9116	-4.2559	-1.7300 H
356 O356	7.7780	-4.2034	-3.4142 O
357 C357	7.1730	-2.9091	-1.4526 C
358 H358	7.7713	-2.0440	-1.1369 H
359 H359	6.3191	-2.5693	-2.0425 H
360 H360	6.8172	-3.3994	-0.5367 H
@<TRIPOS>BOND
1 1 2 2
2 1 3 1
3 1 16 1
4 3 4 1
5 5 9 1
6 5 15 1
7 5 16 1
8 6 7 1
9 6 8 1
10 6 9 2
11 9 10 1
12 10 11 1
13 10 12 1
14 10 13 1
15 14 15 1
16 14 17 1
17 14 18 1
18 14 19 1
19 15 20 1
20 15 21 1
21 16 17 1
22 16 22 1
23 17 23 1
24 17 24 1
25 25 26 1
26 25 27 2
27 25 28 1
28 28 29 1
29 28 30 1
30 28 31 1
31 32 33 1
32 32 34 2
33 32 35 1
34 35 36 1
35 35 37 1
36 35 38 1
37 39 40 1
38 39 41 2
39 39 42 1
40 42 43 1
41 42 44 1
42 42 45 1
43 46 47 1
44 46 48 2
45 46 49 1
46 49 50 1
47 49 51 1
48 49 52 1
49 53 54 1
50 53 55 2
51 53 56 1
52 56 57 1
53 56 58 1
54 56 59 1
55 60 61 1
56 60 62 2
57 60 63 1
58 63 64 1
59 63 65 1
60 63 66 1
61 67 68 1
62 67 69 2
63 67 70 1
64 70 71 1
65 70 72 1
66 70 73 1
67 74 75 1
68 74 76 2
69 74 77 1
70 77 78 1
71 77 79 1
72 77 80 1
73 81 82 1
74 81 83 2
75 81 84 1
76 84 85 1
77 84 86 1
78 84 87 1
79 88 89 1
80 88 90 2
81 88 91 1
82 91 92 1
83 91 93 1
84 91 94 1
85 95 96 1
86 95 97 2
87 95 98 1
88 98 99 1
89 98 100 1
90 98 101 1
91 102 103 1
92 102 104 2
93 102 105 1
94 105 106 1
95 105 107 1
96 105 108 1
97 109 110 1
98 109 111 2
99 109 112 1
100 112 113 1
101 112 114 1
102 112 115 1
103 116 117 1
104 116 118 2
105 116 119 1
106 119 120 1
107 119 121 1
108 119 122 1
109 123 124 1
110 123 125 2
111 123 126 1
112 126 127 1
113 126 128 1
114 126 129 1
115 130 131 1
116 130 132 2
117 130 133 1
118 133 134 1
119 133 135 1
120 133 136 1
121 137 138 1
122 137 139 2
123 137 140 1
124 140 141 1
125 140 142 1
126 140 143 1
127 144 145 1
128 144 146 2
129 144 147 1
130 147 148 1
131 147 149 1
132 147 150 1
133 151 152 1
134 151 153 2
135 151 154 1
136 154 155 1
137 154 156 1
138 154 157 1
139 158 159 1
140 158 160 2
141 158 161 1
142 161 162 1
143 161 163 1
144 161 164 1
145 165 166 1
146 165 167 2
147 165 168 1
148 168 169 1
149 168 170 1
150 168 171 1
151 172 173 1
152 172 174 2
153 172 175 1
154 175 176 1
155 175 177 1
156 175 178 1
157 179 180 1
158 179 181 2
159 179 182 1
160 182 183 1
161 182 184 1
162 182 185 1
163 186 187 1
164 186 188 2
165 186 189 1
166 189 190 1
167 189 191 1
168 189 192 1
169 193 194 1
170 193 195 2
171 193 196 1
172 196 197 1
173 196 198 1
174 196 199 1
175 200 201 1
176 200 202 2
177 200 203 1
178 203 204 1
179 203 205 1
180 203 206 1
181 207 208 1
182 207 209 2
183 207 210 1
184 210 211 1
185 210 212 1
186 210 213 1
187 214 215 1
188 214 216 2
189 214 217 1
190 217 218 1
191 217 219 1
192 217 220 1
193 221 222 1
194 221 223 2
195 221 224 1
196 224 225 1
197 224 226 1
198 224 227 1
199 228 229 1
200 228 230 2
201 228 231 1
202 231 232 1
203 231 233 1
204 231 234 1
205 235 236 1
206 235 237 2
207 235 238 1
208 238 239 1
209 238 240 1
210 238 241 1
211 242 243 1
212 242 244 2
213 242 245 1
214 245 246 1
215 245 247 1
216 245 248 1
217 249 250 1
218 249 251 2
219 249 252 1
220 252 253 1
221 252 254 1
222 252 255 1
223 256 257 1
224 256 258 2
225 256 259 1
226 259 260 1
227 259 261 1
228 259 262 1
229 263 264 1
230 263 265 2
231 263 266 1
232 266 267 1
233 266 268 1
234 266 269 1
235 270 271 1
236 270 272 2
237 270 273 1
238 273 274 1
239 273 275 1
240 273 276 1
241 277 278 1
242 277 279 2
243 277 280 1
244 280 281 1
245 280 282 1
246 280 283 1
247 284 285 1
248 284 286 2
249 284 287 1
250 287 288 1
251 287 289 1
252 287 290 1
253 291 292 1
254 291 293 2
255 291 294 1
256 294 295 1
257 294 296 1
258 294 297 1
259 298 299 1
260 298 300 2
261 298 301 1
262 301 302 1
263 301 303 1
264 301 304 1
265 305 306 1
266 305 307 2
267 305 308 1
268 308 309 1
269 308 310 1
270 308 311 1
271 312 313 1
272 312 314 2
273 312 315 1
274 315 316 1
275 315 317 1
276 315 318 1
277 319 320 1
278 319 321 2
279 319 322 1
280 322 323 1
281 322 324 1
282 322 325 1
283 326 327 1
284 326 328 2
285 326 329 1
286 329 330 1
287 329 331 1
288 329 332 1
289 333 334 1
290 333 335 2
291 333 336 1
292 336 337 1
293 336 338 1
294 336 339 1
295 340 341 1
296 340 342 2
297 340 343 1
298 343 344 1
299 343 345 1
300 343 346 1
301 347 348 1
302 347 349 2
303 347 350 1
304 350 351 1
305 350 352 1
306 350 353 1
307 354 355 1
308 354 356 2
309 354 357 1
310 357 358 1
311 357 359 1
312 357 360 1
