@<TRIPOS>MOLECULE
Molecule Name
346 300
SMALL
NO_CHARGES

@<TRIPOS>ATOM
1 C1	0.0000	0.0000	0.0000 C
2 O2	-1.2347	0.0000	0.0000 O
3 O3	0.7332	1.1692	0.0000 O
4 H4	0.1359	1.9479	-0.0325 H
5 C5	2.2755	-0.7826	-3.4640 C
6 H6	3.2413	-0.3329	-3.2698 H
7 H7	1.9769	-0.8658	-4.5014 H
8 C8	1.4602	-1.2315	-2.4830 C
9 C9	0.0990	-1.8203	-2.7934 C
10 H10	-0.7193	-1.2571	-2.3297 H
11 H11	-0.0680	-1.8228	-3.8726 H
12 H12	0.0265	-2.8551	-2.4339 H
13 C13	3.2281	-1.5351	0.7320 C
14 C14	3.2027	-0.9449	-0.6870 C
15 N15	1.8381	-1.2479	-1.1331 N
16 C16	0.8878	-1.2386	-0.0108 C
17 C17	1.7944	-1.2928	1.2635 C
18 H18	3.4398	-2.6088	0.6797 H
19 H19	3.9861	-1.0698	1.3691 H
20 H20	3.9203	-1.4245	-1.3601 H
21 H21	3.4061	0.1377	-0.6818 H
22 H22	0.2065	-2.0925	-0.0630 H
23 H23	1.7453	-0.3388	1.7959 H
24 H24	1.4618	-2.0772	1.9484 H
25 C25	1.2966	4.6902	-1.4095 C
26 H26	0.7524	4.5175	-2.3574 H
27 O27	0.9975	4.0470	-0.3971 O
28 C28	2.3806	5.7298	-1.4670 C
29 H29	1.9608	6.6962	-1.7766 H
30 H30	2.8624	5.8341	-0.4926 H
31 H31	3.1293	5.4533	-2.2213 H
32 C32	-1.9072	2.6610	1.4462 C
33 H33	-1.3088	2.6271	2.3765 H
34 O34	-1.5791	3.4176	0.5254 O
35 C35	-3.0982	1.7448	1.4104 C
36 H36	-3.7798	1.9790	2.2390 H
37 H37	-3.6278	1.8432	0.4604 H
38 H38	-2.7779	0.7035	1.5483 H
39 C39	0.4548	4.4639	-1.1289 C
40 H40	0.1012	3.6964	-1.8433 H
41 O41	0.8507	4.1302	-0.0064 O
42 C42	0.4104	5.8808	-1.6283 C
43 H43	-0.6170	6.1509	-1.9068 H
44 H44	0.7757	6.5679	-0.8621 H
45 H45	1.0212	5.9808	-2.5354 H
46 C46	-3.6661	2.8707	1.3298 C
47 H47	-4.1090	3.2006	0.3708 H
48 O48	-3.1623	3.6987	2.0970 O
49 C49	-3.7319	1.3932	1.5975 C
50 H50	-3.2169	0.8416	0.7997 H
51 H51	-3.2739	1.1585	2.5607 H
52 H52	-4.7766	1.0549	1.5933 H
53 C53	-5.0048	0.1820	-1.0697 C
54 H54	-5.0875	-0.8782	-0.7636 H
55 O55	-5.3956	0.5367	-2.1875 O
56 C56	-4.4017	1.1043	-0.0476 C
57 H57	-3.3905	0.7666	0.2158 H
58 H58	-4.3591	2.1256	-0.4321 H
59 H59	-4.9939	1.0824	0.8769 H
60 C60	-0.4072	-5.3720	0.6986 C
61 H61	0.4168	-5.6428	1.3858 H
62 O62	-0.3556	-4.3187	0.0538 O
63 C63	-1.5394	-6.3580	0.6274 C
64 H64	-1.9835	-6.4956	1.6223 H
65 H65	-2.3041	-6.0121	-0.0713 H
66 H66	-1.1654	-7.3400	0.3088 H
67 C67	1.2119	3.5243	-3.4251 C
68 H68	1.4641	3.9177	-4.4281 H
69 O69	0.1043	3.7578	-2.9284 O
70 C70	2.2906	2.7188	-2.7569 C
71 H71	3.1996	3.3248	-2.6445 H
72 H72	1.9571	2.3720	-1.7765 H
73 H73	2.5598	1.8567	-3.3814 H
74 C74	-0.9269	-2.1690	3.9062 C
75 H75	-0.4063	-1.3337	4.4119 H
76 O76	-0.3021	-2.9223	3.1511 O
77 C77	-2.3936	-2.2946	4.2098 C
78 H78	-2.9180	-1.3719	3.9274 H
79 H79	-2.8244	-3.1412	3.6710 H
80 H80	-2.5458	-2.4279	5.2891 H
81 C81	3.9095	2.4831	1.1698 C
82 H82	3.4089	2.2568	0.2091 H
83 O83	4.6896	1.6650	1.6699 O
84 C84	3.5678	3.8141	1.7786 C
85 H85	2.4862	3.8812	1.9569 H
86 H86	4.1042	3.9531	2.7196 H
87 H87	3.8252	4.6245	1.0838 H
88 C88	-5.1583	-1.6036	0.1746 C
89 H89	-5.1295	-1.1069	1.1630 H
90 O90	-5.9425	-2.5376	-0.0270 O
91 C91	-4.2007	-1.0613	-0.8492 C
92 H92	-3.1693	-1.1402	-0.4805 H
93 H93	-4.2971	-1.6075	-1.7899 H
94 H94	-4.3953	0.0058	-1.0203 H
95 C95	1.2902	-4.6418	4.0293 C
96 H96	1.3333	-5.4080	3.2320 H
97 O97	1.5724	-3.4656	3.7744 O
98 C98	0.8764	-5.1423	5.3848 C
99 H99	1.5693	-5.9226	5.7268 H
100 H100	0.8609	-4.3229	6.1065 H
101 H101	-0.1184	-5.6041	5.3292 H
102 C102	2.0470	3.2477	-2.3105 C
103 H103	2.7061	2.5763	-2.8931 H
104 O104	0.9144	2.8746	-1.9848 O
105 C105	2.6308	4.5901	-1.9697 C
106 H106	2.9046	5.1268	-2.8879 H
107 H107	1.9154	5.1839	-1.3969 H
108 H108	3.5543	4.4638	-1.3892 H
109 C109	6.1967	-3.5743	-2.0130 C
110 H110	5.7203	-3.7584	-2.9947 H
111 O111	5.9209	-2.5540	-1.3719 O
112 C112	7.1634	-4.6304	-1.5557 C
113 H113	7.9730	-4.7442	-2.2889 H
114 H114	7.5837	-4.3684	-0.5824 H
115 H115	6.6570	-5.6025	-1.4895 H
116 C116	6.3773	1.2057	1.8635 C
117 H117	7.3989	1.5314	1.5896 H
118 O118	5.9530	0.1094	1.4813 O
119 C119	5.5935	2.1751	2.7031 C
120 H120	5.4944	3.1348	2.1784 H
121 H121	4.6023	1.7741	2.9251 H
122 H122	6.1272	2.3802	3.6406 H
123 C123	-4.3591	0.0400	3.1022 C
124 H124	-5.1416	0.3494	2.3835 H
125 O125	-4.6764	-0.4772	4.1792 O
126 C126	-2.9436	0.2956	2.6661 C
127 H127	-2.7958	1.3664	2.4722 H
128 H128	-2.2411	-0.0392	3.4322 H
129 H129	-2.7386	-0.2284	1.7230 H
130 C130	-5.0396	-1.8718	0.5881 C
131 H131	-5.7920	-1.3026	0.0097 H
132 O132	-5.3291	-2.3310	1.6986 O
133 C133	-3.6983	-2.0259	-0.0724 C
134 H134	-3.2639	-1.0388	-0.2799 H
135 H135	-3.0215	-2.5981	0.5656 H
136 H136	-3.8100	-2.5327	-1.0402 H
137 C137	6.4952	-3.4995	-1.6258 C
138 H138	5.8633	-4.4079	-1.6094 H
139 O139	6.0000	-2.3956	-1.3725 O
140 C140	7.9412	-3.7244	-1.9683 C
141 H141	8.0264	-4.1923	-2.9582 H
142 H142	8.4874	-2.7788	-1.9610 H
143 H143	8.3960	-4.4189	-1.2494 H
144 C144	2.0533	-4.8599	-2.4118 C
145 H145	2.3376	-4.4159	-3.3848 H
146 O146	0.8608	-4.9701	-2.1057 O
147 C147	3.1985	-5.2946	-1.5408 C
148 H148	3.8538	-4.4404	-1.3244 H
149 H149	2.8276	-5.7190	-0.6054 H
150 H150	3.8113	-6.0389	-2.0664 H
151 C151	-2.7377	3.2421	0.4716 C
152 H152	-2.5888	3.9265	-0.3851 H
153 O153	-2.3064	3.5458	1.5896 O
154 C154	-3.4776	1.9710	0.1622 C
155 H155	-2.9455	1.4035	-0.6130 H
156 H156	-3.5786	1.3589	1.0610 H
157 H157	-4.4726	2.2018	-0.2409 H
158 C158	-2.2048	1.6297	-2.9054 C
159 H159	-2.5735	1.0215	-2.0577 H
160 O160	-2.7924	1.5983	-3.9925 O
161 C161	-0.9821	2.4570	-2.6234 C
162 H162	-0.1527	1.8097	-2.3084 H
163 H163	-0.6899	3.0222	-3.5109 H
164 H164	-1.1773	3.1486	-1.7931 H
165 C165	-5.0821	-1.8932	-1.8788 C
166 H166	-5.0655	-2.9193	-1.4648 H
167 O167	-6.1085	-1.4564	-2.4114 O
168 C168	-3.8013	-1.1192	-1.7390 C
169 H169	-2.9812	-1.6531	-2.2375 H
170 H170	-3.9076	-0.1226	-2.1725 H
171 H171	-3.5257	-1.0335	-0.6795 H
172 C172	1.8123	4.4215	0.0028 C
173 H173	2.6026	3.9929	0.6481 H
174 O174	1.2995	3.7350	-0.8880 O
175 C175	1.4401	5.8475	0.2979 C
176 H176	2.3211	6.4958	0.1998 H
177 H177	0.6568	6.1870	-0.3831 H
178 H178	1.0926	5.9401	1.3355 H
179 C179	0.8843	-0.2641	-7.3183 C
180 H180	0.2810	0.5554	-7.7532 H
181 O181	0.5173	-0.8179	-6.2759 O
182 C182	2.1308	-0.6222	-8.0780 C
183 H183	2.7890	0.2533	-8.1577 H
184 H184	2.6614	-1.4363	-7.5799 H
185 H185	1.8753	-0.9209	-9.1034 H
186 C186	-0.3323	-2.6741	-6.6189 C
187 H187	-1.1947	-3.1569	-6.1211 H
188 O188	0.1530	-1.6380	-6.1509 O
189 C189	0.1682	-3.3637	-7.8570 C
190 H190	-0.6356	-3.4318	-8.6023 H
191 H191	1.0163	-2.8214	-8.2803 H
192 H192	0.4690	-4.3929	-7.6205 H
193 C193	-4.2052	-1.8166	-2.7731 C
194 H194	-3.8258	-0.8877	-3.2399 H
195 O195	-4.9865	-2.5471	-3.3927 O
196 C196	-3.7051	-2.0920	-1.3828 C
197 H197	-3.9741	-1.2637	-0.7137 H
198 H198	-4.1283	-3.0238	-1.0018 H
199 H199	-2.6089	-2.1568	-1.3818 H
200 C200	4.3251	3.1198	-1.8381 C
201 H201	3.3277	3.4620	-2.1738 H
202 O202	4.5216	1.9231	-1.5989 O
203 C203	5.3667	4.1954	-1.7069 C
204 H204	5.0325	4.9596	-0.9926 H
205 H205	6.3153	3.7701	-1.3725 H
206 H206	5.5089	4.7028	-2.6703 H
207 C207	5.5654	-1.0675	-4.5217 C
208 H208	4.9708	-0.5097	-5.2700 H
209 O209	5.4982	-0.7636	-3.3254 O
210 C210	6.4202	-2.1750	-5.0710 C
211 H211	7.1278	-1.7750	-5.8094 H
212 H212	6.9693	-2.6690	-4.2665 H
213 H213	5.7952	-2.9092	-5.5964 H
214 C214	-0.0694	4.0445	-3.8514 C
215 H215	-0.4734	3.7825	-4.8478 H
216 O216	0.5883	5.0805	-3.7022 O
217 C217	-0.3807	3.0691	-2.7511 C
218 H218	0.0116	2.0754	-3.0052 H
219 H219	0.0545	3.4054	-1.8077 H
220 H220	-1.4677	2.9613	-2.6385 H
221 C221	3.2507	3.6498	-4.0646 C
222 H222	2.2978	3.6114	-4.6258 H
223 O223	4.2319	4.2255	-4.5481 O
224 C224	3.2392	2.9690	-2.7246 C
225 H225	2.9786	1.9086	-2.8420 H
226 H226	4.2156	3.0559	-2.2433 H
227 H227	2.4694	3.4151	-2.0810 H
228 C228	2.8455	-1.7452	5.0499 C
229 H229	3.6424	-1.0064	4.8405 H
230 O230	2.1875	-2.2270	4.1210 O
231 C231	2.6490	-2.0901	6.4996 C
232 H232	2.4068	-1.1856	7.0734 H
233 H233	1.8470	-2.8225	6.6130 H
234 H234	3.5794	-2.4932	6.9212 H
235 C235	-3.1141	2.0932	-1.5628 C
236 H236	-2.1241	1.7014	-1.2612 H
237 O237	-3.3936	2.2150	-2.7608 O
238 C238	-4.0409	2.4459	-0.4333 C
239 H239	-3.5784	3.2050	0.2116 H
240 H240	-4.9899	2.8224	-0.8209 H
241 H241	-4.2226	1.5641	0.1953 H
242 C242	-3.3482	-1.5206	3.2320 C
243 H243	-3.2290	-0.5664	3.7796 H
244 O244	-4.4456	-2.0891	3.2091 O
245 C245	-2.1101	-2.0343	2.5521 C
246 H246	-1.3098	-2.1851	3.2888 H
247 H247	-2.3185	-2.9753	2.0386 H
248 H248	-1.7409	-1.2938	1.8302 H
249 C249	-4.7930	-1.0748	-2.5843 C
250 H250	-4.5141	-1.5487	-3.5446 H
251 O251	-5.7461	-0.2893	-2.5346 O
252 C252	-3.9446	-1.4579	-1.4042 C
253 H253	-2.8940	-1.2015	-1.5954 H
254 H254	-4.2893	-0.9461	-0.5033 H
255 H255	-3.9824	-2.5443	-1.2489 H
256 C256	2.6328	-3.1666	-7.5104 C
257 H257	2.7876	-3.9029	-8.3219 H
258 O258	2.5864	-1.9589	-7.7699 O
259 C259	2.4912	-3.7460	-6.1308 C
260 H260	3.3868	-4.3260	-5.8711 H
261 H261	2.3423	-2.9518	-5.3961 H
262 H262	1.6425	-4.4421	-6.0989 H
263 C263	5.5672	2.8539	-0.0723 C
264 H264	6.6577	2.7601	-0.2352 H
265 O265	4.8390	1.8593	-0.1648 O
266 C266	5.0795	4.2372	0.2560 C
267 H267	5.3441	4.9324	-0.5519 H
268 H268	3.9970	4.2367	0.4000 H
269 H269	5.5727	4.6056	1.1653 H
270 C270	4.2201	-2.2000	-6.3522 C
271 H271	3.2527	-1.6771	-6.2286 H
272 O272	5.1027	-1.7100	-7.0655 O
273 C273	4.3525	-3.4985	-5.6069 C
274 H274	3.5673	-4.1977	-5.9241 H
275 H275	5.3339	-3.9433	-5.7852 H
276 H276	4.2127	-3.3321	-4.5306 H
277 C277	-0.1734	4.9020	-2.6018 C
278 H278	0.8656	5.2238	-2.8055 H
279 O279	-1.0181	5.7281	-2.2385 O
280 C280	-0.4465	3.4372	-2.7991 C
281 H281	0.2074	2.8403	-2.1493 H
282 H282	-1.4913	3.2099	-2.5769 H
283 H283	-0.2172	3.1462	-3.8328 H
284 C284	0.2007	3.8218	-2.3215 C
285 H285	-0.5818	3.3938	-1.6665 H
286 O286	-0.0198	4.8616	-2.9525 O
287 C287	1.4934	3.0565	-2.3687 C
288 H288	1.3121	2.0299	-2.7141 H
289 H289	2.2046	3.5481	-3.0359 H
290 H290	1.9242	2.9804	-1.3614 H
291 C291	2.6294	4.1925	-2.2979 C
292 H292	3.4767	3.8921	-2.9431 H
293 O293	2.6493	5.2833	-1.7167 O
294 C294	1.5073	3.1973	-2.2000 C
295 H295	1.8833	2.2414	-1.8114 H
296 H296	0.7179	3.5743	-1.5463 H
297 H297	1.0950	2.9938	-3.1972 H
298 C298	4.0729	-4.0459	-6.6187 C
299 H299	4.1784	-4.6217	-5.6796 H
300 O300	4.7680	-4.3292	-7.6008 O
301 C301	3.0542	-2.9412	-6.5882 C
302 H302	3.3016	-2.2213	-5.7966 H
303 H303	3.0170	-2.4288	-7.5518 H
304 H304	2.0630	-3.3481	-6.3480 H
305 C305	-4.2929	-3.8091	-2.0072 C
306 H306	-5.2854	-3.3665	-1.7982 H
307 O307	-4.1858	-5.0243	-2.2067 O
308 C308	-3.1441	-2.8401	-2.0247 C
309 H309	-3.0688	-2.3262	-1.0571 H
310 H310	-2.2080	-3.3608	-2.2376 H
311 H311	-3.3158	-2.0645	-2.7828 H
312 C312	4.1109	4.4431	-0.9341 C
313 H313	5.1131	4.4783	-0.4662 H
314 O314	3.4647	5.4846	-1.0943 O
315 C315	3.6335	3.0759	-1.3365 C
316 H316	3.6021	2.4140	-0.4607 H
317 H317	2.6407	3.1351	-1.7877 H
318 H318	4.3366	2.6251	-2.0494 H
319 C319	-0.5962	4.9891	-2.6298 C
320 H320	-0.7917	5.0030	-3.7189 H
321 O321	-1.1309	5.8257	-1.8935 O
322 C322	0.3354	3.9097	-2.1543 C
323 H323	1.3089	4.0041	-2.6538 H
324 H324	0.4706	3.9706	-1.0724 H
325 H325	-0.0634	2.9221	-2.4215 H
326 C326	-3.8314	-2.2223	1.1839 C
327 H327	-3.9306	-1.1315	1.3420 H
328 O328	-4.8214	-2.9556	1.2849 O
329 C329	-2.4470	-2.7037	0.8512 C
330 H330	-1.7493	-2.4312	1.6544 H
331 H331	-2.4420	-3.7869	0.7125 H
332 H332	-2.0859	-2.2128	-0.0623 H
333 C333	3.1558	3.6550	-4.8656 C
334 H334	3.2972	3.2002	-5.8644 H
335 O335	3.3313	4.8682	-4.7066 O
336 C336	2.7501	2.7044	-3.7743 C
337 H337	3.5039	1.9136	-3.6629 H
338 H338	2.6334	3.2364	-2.8278 H
339 H339	1.8066	2.2080	-4.0375 H
340 C340	2.8779	4.9584	0.3990 C
341 H341	2.9817	4.6849	1.4662 H
342 O342	2.7471	6.1435	0.0728 O
343 C343	2.9095	3.8087	-0.5686 C
344 H344	2.1027	3.0998	-0.3392 H
345 H345	2.8012	4.1688	-1.5939 H
346 H346	3.8538	3.2571	-0.4690 H
@<TRIPOS>BOND
1 1 2 2
2 1 3 1
3 1 16 1
4 3 4 1
5 5 6 1
6 5 7 1
7 5 8 2
8 8 9 1
9 8 15 1
10 9 10 1
11 9 11 1
12 9 12 1
13 13 14 1
14 13 17 1
15 13 18 1
16 13 19 1
17 14 15 1
18 14 20 1
19 14 21 1
20 15 16 1
21 16 17 1
22 16 22 1
23 17 23 1
24 17 24 1
25 25 26 1
26 25 27 2
27 25 28 1
28 28 29 1
29 28 30 1
30 28 31 1
31 32 33 1
32 32 34 2
33 32 35 1
34 35 36 1
35 35 37 1
36 35 38 1
37 39 40 1
38 39 41 2
39 39 42 1
40 42 43 1
41 42 44 1
42 42 45 1
43 46 47 1
44 46 48 2
45 46 49 1
46 49 50 1
47 49 51 1
48 49 52 1
49 53 54 1
50 53 55 2
51 53 56 1
52 56 57 1
53 56 58 1
54 56 59 1
55 60 61 1
56 60 62 2
57 60 63 1
58 63 64 1
59 63 65 1
60 63 66 1
61 67 68 1
62 67 69 2
63 67 70 1
64 70 71 1
65 70 72 1
66 70 73 1
67 74 75 1
68 74 76 2
69 74 77 1
70 77 78 1
71 77 79 1
72 77 80 1
73 81 82 1
74 81 83 2
75 81 84 1
76 84 85 1
77 84 86 1
78 84 87 1
79 88 89 1
80 88 90 2
81 88 91 1
82 91 92 1
83 91 93 1
84 91 94 1
85 95 96 1
86 95 97 2
87 95 98 1
88 98 99 1
89 98 100 1
90 98 101 1
91 102 103 1
92 102 104 2
93 102 105 1
94 105 106 1
95 105 107 1
96 105 108 1
97 109 110 1
98 109 111 2
99 109 112 1
100 112 113 1
101 112 114 1
102 112 115 1
103 116 117 1
104 116 118 2
105 116 119 1
106 119 120 1
107 119 121 1
108 119 122 1
109 123 124 1
110 123 125 2
111 123 126 1
112 126 127 1
113 126 128 1
114 126 129 1
115 130 131 1
116 130 132 2
117 130 133 1
118 133 134 1
119 133 135 1
120 133 136 1
121 137 138 1
122 137 139 2
123 137 140 1
124 140 141 1
125 140 142 1
126 140 143 1
127 144 145 1
128 144 146 2
129 144 147 1
130 147 148 1
131 147 149 1
132 147 150 1
133 151 152 1
134 151 153 2
135 151 154 1
136 154 155 1
137 154 156 1
138 154 157 1
139 158 159 1
140 158 160 2
141 158 161 1
142 161 162 1
143 161 163 1
144 161 164 1
145 165 166 1
146 165 167 2
147 165 168 1
148 168 169 1
149 168 170 1
150 168 171 1
151 172 173 1
152 172 174 2
153 172 175 1
154 175 176 1
155 175 177 1
156 175 178 1
157 179 180 1
158 179 181 2
159 179 182 1
160 182 183 1
161 182 184 1
162 182 185 1
163 186 187 1
164 186 188 2
165 186 189 1
166 189 190 1
167 189 191 1
168 189 192 1
169 193 194 1
170 193 195 2
171 193 196 1
172 196 197 1
173 196 198 1
174 196 199 1
175 200 201 1
176 200 202 2
177 200 203 1
178 203 204 1
179 203 205 1
180 203 206 1
181 207 208 1
182 207 209 2
183 207 210 1
184 210 211 1
185 210 212 1
186 210 213 1
187 214 215 1
188 214 216 2
189 214 217 1
190 217 218 1
191 217 219 1
192 217 220 1
193 221 222 1
194 221 223 2
195 221 224 1
196 224 225 1
197 224 226 1
198 224 227 1
199 228 229 1
200 228 230 2
201 228 231 1
202 231 232 1
203 231 233 1
204 231 234 1
205 235 236 1
206 235 237 2
207 235 238 1
208 238 239 1
209 238 240 1
210 238 241 1
211 242 243 1
212 242 244 2
213 242 245 1
214 245 246 1
215 245 247 1
216 245 248 1
217 249 250 1
218 249 251 2
219 249 252 1
220 252 253 1
221 252 254 1
222 252 255 1
223 256 257 1
224 256 258 2
225 256 259 1
226 259 260 1
227 259 261 1
228 259 262 1
229 263 264 1
230 263 265 2
231 263 266 1
232 266 267 1
233 266 268 1
234 266 269 1
235 270 271 1
236 270 272 2
237 270 273 1
238 273 274 1
239 273 275 1
240 273 276 1
241 277 278 1
242 277 279 2
243 277 280 1
244 280 281 1
245 280 282 1
246 280 283 1
247 284 285 1
248 284 286 2
249 284 287 1
250 287 288 1
251 287 289 1
252 287 290 1
253 291 292 1
254 291 293 2
255 291 294 1
256 294 295 1
257 294 296 1
258 294 297 1
259 298 299 1
260 298 300 2
261 298 301 1
262 301 302 1
263 301 303 1
264 301 304 1
265 305 306 1
266 305 307 2
267 305 308 1
268 308 309 1
269 308 310 1
270 308 311 1
271 312 313 1
272 312 314 2
273 312 315 1
274 315 316 1
275 315 317 1
276 315 318 1
277 319 320 1
278 319 321 2
279 319 322 1
280 322 323 1
281 322 324 1
282 322 325 1
283 326 327 1
284 326 328 2
285 326 329 1
286 329 330 1
287 329 331 1
288 329 332 1
289 333 334 1
290 333 335 2
291 333 336 1
292 336 337 1
293 336 338 1
294 336 339 1
295 340 341 1
296 340 342 2
297 340 343 1
298 343 344 1
299 343 345 1
300 343 346 1
