@<TRIPOS>MOLECULE
Molecule Name
367 318
SMALL
NO_CHARGES

@<TRIPOS>ATOM
1 C1	0.0000	0.0000	0.0000 C
2 O2	-1.2347	0.0000	0.0000 O
3 O3	0.7299	1.1715	0.0000 O
4 H4	0.1277	1.9474	-0.0239 H
5 N5	1.8600	-1.2616	-1.0929 N
6 C6	3.0751	-0.6092	0.8637 C
7 C7	3.1961	-0.8175	-0.6630 C
8 C8	2.4721	-1.3227	-3.4265 C
9 H9	3.4738	-0.9518	-3.2521 H
10 H10	2.2131	-1.5605	-4.4503 H
11 C11	1.5646	-1.5038	-2.4383 C
12 C12	0.1771	-2.0333	-2.7349 C
13 H13	-0.6129	-1.3593	-2.3830 H
14 H14	0.0526	-2.1641	-3.8117 H
15 H15	0.0098	-3.0073	-2.2560 H
16 C16	0.8812	-1.2464	-0.0050 C
17 C17	1.7731	-1.3436	1.2594 C
18 H18	3.9428	-1.0025	1.4017 H
19 H19	2.9877	0.4561	1.0911 H
20 H20	3.9379	-1.5844	-0.9281 H
21 H21	3.4848	0.1114	-1.1735 H
22 H22	0.1905	-2.0899	-0.0736 H
23 H23	1.2959	-0.9176	2.1469 H
24 H24	1.9682	-2.4035	1.4568 H
25 C25	-0.0395	5.2810	0.2165 C
26 H26	-0.4637	6.0213	0.9212 H
27 O27	-0.5225	4.1454	0.1456 O
28 C28	1.1223	5.7637	-0.6059 C
29 H29	1.9410	6.0873	0.0506 H
30 H30	1.4754	4.9722	-1.2703 H
31 H31	0.8270	6.6393	-1.1992 H
32 C32	1.3431	4.6027	1.3953 C
33 H33	1.5913	4.3273	2.4380 H
34 O34	0.3861	4.0680	0.8242 O
35 C35	2.2361	5.6376	0.7704 C
36 H36	3.2771	5.2879	0.7707 H
37 H37	1.9196	5.8475	-0.2535 H
38 H38	2.2125	6.5630	1.3611 H
39 C39	-2.1589	-3.2775	0.1882 C
40 H40	-2.0729	-2.1827	0.3245 H
41 O41	-1.1512	-3.9538	-0.0468 O
42 C42	-3.5487	-3.8366	0.3101 C
43 H43	-4.2104	-3.3682	-0.4308 H
44 H44	-3.5399	-4.9185	0.1623 H
45 H45	-3.9645	-3.6025	1.2991 H
46 C46	-2.2942	-4.2435	-0.0329 C
47 H47	-2.8257	-3.9399	-0.9548 H
48 O48	-1.0933	-3.9844	0.1039 O
49 C49	-3.1299	-4.9653	0.9868 C
50 H50	-3.5573	-5.8767	0.5479 H
51 H51	-2.5275	-5.2257	1.8596 H
52 H52	-3.9751	-4.3361	1.2960 H
53 C53	1.5494	2.4335	-2.9650 C
54 H54	2.6527	2.5194	-2.9624 H
55 O55	0.8940	2.8391	-1.9986 O
56 C56	0.9530	1.8077	-4.1945 C
57 H57	1.3539	0.7951	-4.3352 H
58 H58	-0.1350	1.7635	-4.1116 H
59 H59	1.2321	2.3856	-5.0856 H
60 C60	0.2977	4.4633	2.2229 C
61 H61	-0.6438	5.0125	2.0315 H
62 O62	0.4390	3.3099	1.8013 O
63 C63	1.3370	5.2158	3.0056 C
64 H64	0.9332	5.5107	3.9834 H
65 H65	2.2285	4.6011	3.1469 H
66 H66	1.6067	6.1424	2.4817 H
67 C67	-2.2791	-3.2640	1.9477 C
68 H68	-2.7243	-2.4848	2.5951 H
69 O69	-1.1376	-3.1172	1.4966 O
70 C70	-3.1512	-4.4590	1.6820 C
71 H71	-4.0891	-4.1436	1.2058 H
72 H72	-2.6346	-5.1736	1.0378 H
73 H73	-3.4241	-4.9451	2.6281 H
74 C74	3.4305	-4.6195	-0.2355 C
75 H75	3.8180	-3.8786	-0.9604 H
76 O76	3.2592	-4.2994	0.9462 O
77 C77	3.1461	-5.9846	-0.7963 C
78 H78	4.0590	-6.4108	-1.2336 H
79 H79	2.7690	-6.6480	-0.0151 H
80 H80	2.4095	-5.9136	-1.6076 H
81 C81	-4.0099	2.2026	-2.2456 C
82 H82	-4.3364	1.2184	-2.6321 H
83 O83	-3.9493	3.1771	-3.0037 O
84 C84	-3.6639	2.2400	-0.7834 C
85 H85	-2.8570	1.5270	-0.5679 H
86 H86	-3.3538	3.2451	-0.4895 H
87 H87	-4.5293	1.9303	-0.1826 H
88 C88	-2.1450	-4.5685	0.6789 C
89 H89	-3.0762	-4.3616	1.2399 H
90 O90	-1.2316	-3.7358	0.6653 O
91 C91	-2.0986	-5.8931	-0.0300 C
92 H92	-2.9278	-5.9672	-0.7463 H
93 H93	-1.1485	-6.0127	-0.5549 H
94 H94	-2.2280	-6.7116	0.6904 H
95 C95	2.6053	-5.5123	0.3252 C
96 H96	3.3956	-6.2786	0.2124 H
97 O97	2.8366	-4.4707	0.9494 O
98 C98	1.2887	-5.8420	-0.3206 C
99 H99	0.8894	-6.7779	0.0924 H
100 H100	0.5714	-5.0344	-0.1602 H
101 H101	1.4268	-6.0045	-1.3978 H
102 C102	-3.8084	1.5389	-1.4284 C
103 H103	-3.2054	0.9294	-0.7288 H
104 O104	-3.3748	1.7980	-2.5567 O
105 C105	-5.1391	1.9990	-0.9026 C
106 H106	-4.9988	2.5990	0.0065 H
107 H107	-5.6638	2.5908	-1.6556 H
108 H108	-5.7530	1.1337	-0.6196 H
109 C109	-4.7810	-2.0485	-0.8812 C
110 H110	-4.9070	-1.8167	-1.9559 H
111 O111	-4.9496	-3.2027	-0.4722 O
112 C112	-4.4038	-0.8839	-0.0091 C
113 H113	-5.1660	-0.0965	-0.0802 H
114 H114	-4.3009	-1.2023	1.0305 H
115 H115	-3.4596	-0.4431	-0.3553 H
116 C116	3.7910	1.9588	-3.6431 C
117 H117	2.6845	1.9620	-3.6584 H
118 O118	4.3956	1.6599	-2.6072 O
119 C119	4.4562	2.3340	-4.9376 C
120 H120	4.1426	3.3404	-5.2455 H
121 H121	5.5427	2.3044	-4.8318 H
122 H122	4.1442	1.6469	-5.7354 H
123 C123	-3.5365	3.1065	1.1541 C
124 H124	-3.6848	3.7233	0.2474 H
125 O125	-3.1652	3.6340	2.2085 O
126 C126	-3.8156	1.6388	0.9898 C
127 H127	-3.1718	1.2174	0.2063 H
128 H128	-3.6445	1.1096	1.9296 H
129 H129	-4.8530	1.4859	0.6637 H
130 C130	5.6764	-3.7797	-2.3494 C
131 H131	6.2507	-3.8254	-3.2942 H
132 O132	5.7707	-2.7905	-1.6141 O
133 C133	4.8135	-4.9756	-2.0593 C
134 H134	5.4290	-5.8840	-2.0168 H
135 H135	4.2855	-4.8453	-1.1122 H
136 H136	4.0871	-5.1225	-2.8696 H
137 C137	0.7301	-5.2076	1.3697 C
138 H138	1.8061	-5.4486	1.2765 H
139 O139	0.2641	-4.2189	0.7924 O
140 C140	-0.0715	-6.1502	2.2230 C
141 H141	0.3397	-6.1807	3.2408 H
142 H142	-1.1174	-5.8379	2.2588 H
143 H143	-0.0046	-7.1709	1.8234 H
144 C144	-1.2296	-4.9950	-0.2803 C
145 H145	-1.8237	-4.9278	-1.2114 H
146 O146	-1.0217	-3.9818	0.3967 O
147 C147	-0.7244	-6.3675	0.0662 C
148 H148	-0.0934	-6.7536	-0.7455 H
149 H149	-0.1515	-6.3407	0.9955 H
150 H150	-1.5666	-7.0643	0.1717 H
151 C151	-0.9138	-1.6129	4.1693 C
152 H152	-1.2877	-2.5214	3.6600 H
153 O153	0.2949	-1.3543	4.1670 O
154 C154	-1.9635	-0.7652	4.8315 C
155 H155	-2.5056	-1.3543	5.5833 H
156 H156	-1.5076	0.1059	5.3067 H
157 H157	-2.7052	-0.4361	4.0916 H
158 C158	-0.3954	1.7335	3.0355 C
159 H159	0.6992	1.5715	3.0462 H
160 O160	-0.9593	2.0878	1.9941 O
161 C161	-1.0969	1.4934	4.3429 C
162 H162	-0.6830	2.1503	5.1196 H
163 H163	-2.1687	1.6757	4.2408 H
164 H164	-0.9283	0.4613	4.6779 H
165 C165	-5.1668	-0.8731	0.5634 C
166 H166	-5.1922	-1.4268	1.5211 H
167 O167	-5.7521	-1.3229	-0.4282 O
168 C168	-4.3915	0.4144	0.5817 C
169 H169	-3.3490	0.2232	0.8694 H
170 H170	-4.4197	0.8917	-0.4001 H
171 H171	-4.8084	1.0955	1.3354 H
172 C172	-5.2525	-1.6526	0.8580 C
173 H173	-5.7939	-1.4053	-0.0748 H
174 O174	-5.8812	-1.8820	1.8973 O
175 C175	-3.7538	-1.6817	0.7469 C
176 H176	-3.3813	-0.7055	0.4090 H
177 H177	-3.3039	-1.9331	1.7097 H
178 H178	-3.4454	-2.4172	-0.0079 H
179 C179	-0.9776	-4.9116	0.4037 C
180 H180	-0.1718	-5.2177	1.0977 H
181 O181	-0.7066	-4.5993	-0.7612 O
182 C182	-2.3643	-4.9117	0.9834 C
183 H183	-2.4121	-4.2364	1.8481 H
184 H184	-3.0926	-4.5984	0.2324 H
185 H185	-2.6202	-5.9146	1.3500 H
186 C186	-0.0404	-2.5232	-7.2210 C
187 H187	0.3329	-1.5651	-7.6299 H
188 O188	-0.3528	-2.6080	-6.0280 O
189 C189	-0.1271	-3.6558	-8.2052 C
190 H190	0.8619	-3.8557	-8.6389 H
191 H191	-0.5033	-4.5577	-7.7180 H
192 H192	-0.7889	-3.3826	-9.0378 H
193 C193	7.1178	-2.8713	-0.4811 C
194 H194	7.4266	-3.9322	-0.5428 H
195 O195	5.9243	-2.5803	-0.3435 O
196 C196	8.2324	-1.8674	-0.5759 C
197 H197	8.7713	-1.9900	-1.5249 H
198 H198	7.8386	-0.8512	-0.5060 H
199 H199	8.9622	-2.0365	0.2270 H
200 C200	4.4638	-4.4823	-0.7968 C
201 H201	5.0724	-3.5662	-0.6743 H
202 O202	3.4114	-4.6165	-0.1625 O
203 C203	5.0115	-5.4979	-1.7600 C
204 H204	6.0128	-5.8180	-1.4423 H
205 H205	4.3502	-6.3649	-1.8183 H
206 H206	5.1231	-5.0510	-2.7568 H
207 C207	6.6354	-2.2402	-1.7634 C
208 H208	6.1579	-1.6869	-2.5943 H
209 O209	5.9446	-2.6999	-0.8472 O
210 C210	8.1300	-2.3734	-1.8504 C
211 H211	8.5963	-1.3796	-1.8837 H
212 H212	8.5147	-2.9308	-0.9937 H
213 H213	8.4099	-2.8861	-2.7802 H
214 C214	4.6801	-1.4021	4.7801 C
215 H215	5.0043	-0.4107	5.1495 H
216 O216	4.3508	-1.5454	3.5973 O
217 C217	4.6782	-2.5037	5.8026 C
218 H218	4.0169	-2.2411	6.6392 H
219 H219	4.3465	-3.4420	5.3531 H
220 H220	5.6849	-2.6310	6.2224 H
221 C221	5.4738	-3.8028	-1.5778 C
222 H222	5.3545	-4.9010	-1.5130 H
223 O223	5.5952	-3.1307	-0.5474 O
224 C224	5.4744	-3.2339	-2.9690 C
225 H225	4.5354	-3.4852	-3.4800 H
226 H226	5.5967	-2.1492	-2.9384 H
227 H227	6.2856	-3.6804	-3.5592 H
228 C228	-4.8646	-0.5511	-2.8784 C
229 H229	-5.7279	-0.6438	-2.1924 H
230 O230	-5.0429	-0.2329	-4.0595 O
231 C231	-3.5208	-0.8351	-2.2679 C
232 H232	-3.4990	-1.8547	-1.8607 H
233 H233	-2.7305	-0.7203	-3.0128 H
234 H234	-3.3368	-0.1538	-1.4266 H
235 C235	5.7257	-2.2527	3.6505 C
236 H236	5.4834	-3.3311	3.7031 H
237 O237	5.8097	-1.6891	2.5535 O
238 C238	5.9329	-1.5717	4.9743 C
239 H239	6.7494	-2.0575	5.5251 H
240 H240	6.1664	-0.5150	4.8283 H
241 H241	5.0314	-1.6684	5.5938 H
242 C242	4.3874	1.9130	-3.2474 C
243 H243	3.7995	1.6780	-4.1550 H
244 O244	4.9916	1.0148	-2.6506 O
245 C245	4.3818	3.3568	-2.8297 C
246 H246	3.3529	3.6913	-2.6410 H
247 H247	4.9842	3.4968	-1.9297 H
248 H248	4.7759	3.9856	-3.6391 H
249 C249	-0.8992	-3.9625	-6.3821 C
250 H250	-0.0111	-4.4819	-6.7897 H
251 O251	-0.7770	-2.8575	-5.8415 O
252 C252	-2.2037	-4.6921	-6.5403 C
253 H253	-2.1506	-5.6718	-6.0470 H
254 H254	-3.0220	-4.1094	-6.1120 H
255 H255	-2.4031	-4.8828	-7.6031 H
256 C256	-1.9127	-4.8787	-1.2217 C
257 H257	-2.1351	-4.1599	-0.4103 H
258 O258	-0.7442	-5.0706	-1.5765 O
259 C259	-3.1073	-5.5655	-1.8219 C
260 H260	-3.8029	-4.8221	-2.2336 H
261 H261	-2.7963	-6.2537	-2.6107 H
262 H262	-3.6553	-6.1166	-1.0461 H
263 C263	-3.6892	0.0906	-2.7347 C
264 H264	-3.9815	1.1419	-2.5508 H
265 O265	-2.5079	-0.1934	-2.9626 O
266 C266	-4.8097	-0.9099	-2.6836 C
267 H267	-5.5771	-0.6556	-3.4268 H
268 H268	-4.4323	-1.9166	-2.8753 H
269 H269	-5.2982	-0.8798	-1.7006 H
270 C270	2.6586	3.0938	-4.1327 C
271 H271	2.4635	2.5041	-5.0485 H
272 O272	2.4411	4.3106	-4.1211 O
273 C273	3.1872	2.3134	-2.9620 C
274 H274	4.1300	1.8193	-3.2323 H
275 H275	3.3501	2.9715	-2.1059 H
276 H276	2.4805	1.5190	-2.6877 H
277 C277	-3.0642	-3.5064	-1.9025 C
278 H278	-2.3781	-2.8252	-2.4409 H
279 O279	-2.6184	-4.5002	-1.3179 O
280 C280	-4.5179	-3.1272	-1.9473 C
281 H281	-4.8640	-3.0804	-2.9885 H
282 H282	-5.1190	-3.8509	-1.3929 H
283 H283	-4.6601	-2.1253	-1.5208 H
284 C284	4.9172	-3.5178	-6.8722 C
285 H285	5.0125	-4.1929	-6.0006 H
286 O286	5.9223	-3.1815	-7.5084 O
287 C287	3.5186	-3.0706	-7.1933 C
288 H288	3.0828	-2.5464	-6.3324 H
289 H289	3.5185	-2.4108	-8.0635 H
290 H290	2.8796	-3.9417	-7.3905 H
291 C291	4.7476	3.7303	-3.1374 C
292 H292	3.8220	4.3356	-3.1004 H
293 O293	5.8122	4.2470	-3.4949 O
294 C294	4.5952	2.2911	-2.7316 C
295 H295	3.8599	1.7926	-3.3773 H
296 H296	5.5535	1.7717	-2.7976 H
297 H297	4.2104	2.2270	-1.7051 H
298 C298	-1.8281	3.9403	3.3463 C
299 H299	-2.4239	4.6366	2.7261 H
300 O300	-1.7038	4.1424	4.5595 O
301 C301	-1.2146	2.7825	2.6100 C
302 H302	-0.5529	3.1493	1.8139 H
303 H303	-0.6475	2.1502	3.2963 H
304 H304	-1.9979	2.1877	2.1219 H
305 C305	-5.3288	1.2037	0.1643 C
306 H306	-5.8608	1.0618	-0.7956 H
307 O307	-5.9685	1.3826	1.2068 O
308 C308	-3.8285	1.1605	0.0841 C
309 H309	-3.4646	1.9367	-0.6022 H
310 H310	-3.3884	1.3086	1.0725 H
311 H311	-3.4999	0.1960	-0.3255 H
312 C312	5.4886	-5.1364	-2.5809 C
313 H313	5.2039	-4.6098	-3.5116 H
314 O314	5.4567	-6.3712	-2.5330 O
315 C315	5.8976	-4.2513	-1.4370 C
316 H316	5.0801	-3.5647	-1.1799 H
317 H317	6.1607	-4.8522	-0.5639 H
318 H318	6.7541	-3.6291	-1.7286 H
319 C319	4.0589	-2.8054	-7.9569 C
320 H320	3.1777	-3.4735	-7.9159 H
321 O321	5.0200	-3.0910	-8.6799 O
322 C322	3.9802	-1.5783	-7.0925 C
323 H323	3.8436	-1.8652	-6.0412 H
324 H324	4.8878	-0.9798	-7.1948 H
325 H325	3.1065	-0.9748	-7.3723 H
326 C326	1.7989	-3.7863	-8.0238 C
327 H327	1.0910	-4.5240	-7.6004 H
328 O328	1.6070	-3.3203	-9.1525 O
329 C329	2.9587	-3.4226	-7.1397 C
330 H330	3.5408	-4.3203	-6.8921 H
331 H331	3.6026	-2.6926	-7.6347 H
332 H332	2.5943	-3.0094	-6.1898 H
333 C333	5.7972	-4.1727	-5.0105 C
334 H334	6.5999	-3.8934	-4.3018 H
335 O335	5.7823	-5.3003	-5.5168 O
336 C336	4.7771	-3.1037	-5.2852 C
337 H337	5.2676	-2.2094	-5.6924 H
338 H338	4.0262	-3.4642	-5.9915 H
339 H339	4.2882	-2.7990	-4.3503 H
340 C340	0.9069	-6.1598	-4.3353 C
341 H341	1.9980	-6.3436	-4.3182 H
342 O342	0.1427	-6.9074	-3.7147 O
343 C343	0.4642	-4.9733	-5.1448 C
344 H344	0.7868	-5.0866	-6.1884 H
345 H345	-0.6220	-4.8676	-5.1057 H
346 H346	0.9380	-4.0586	-4.7643 H
347 C347	7.4535	-2.8369	-3.8255 C
348 H348	8.0545	-2.2311	-3.1209 H
349 O349	7.8020	-3.9894	-4.1052 O
350 C350	6.2334	-2.1586	-4.3826 C
351 H351	6.5207	-1.2408	-4.9128 H
352 H352	5.7031	-2.8261	-5.0650 H
353 H353	5.5635	-1.8567	-3.5666 H
354 C354	-0.0148	-0.0407	6.0603 C
355 H355	-0.9862	-0.5151	6.2966 H
356 O356	0.2358	1.0973	6.4727 O
357 C357	0.9248	-0.8707	5.2312 C
358 H358	0.4538	-1.1313	4.2739 H
359 H359	1.8540	-0.3272	5.0471 H
360 H360	1.1456	-1.8164	5.7436 H
361 C361	7.3137	-1.3185	4.1187 C
362 H362	7.1810	-0.3569	4.6499 H
363 O363	8.4496	-1.7338	3.8632 O
364 C364	6.0442	-2.0365	3.7552 C
365 H365	5.4204	-1.3993	3.1142 H
366 H366	6.2686	-2.9711	3.2368 H
367 H367	5.4577	-2.2474	4.6592 H
@<TRIPOS>BOND
1 1 2 2
2 1 3 1
3 1 16 1
4 3 4 1
5 5 7 1
6 5 11 1
7 5 16 1
8 6 7 1
9 6 17 1
10 6 18 1
11 6 19 1
12 7 20 1
13 7 21 1
14 8 9 1
15 8 10 1
16 8 11 2
17 11 12 1
18 12 13 1
19 12 14 1
20 12 15 1
21 16 17 1
22 16 22 1
23 17 23 1
24 17 24 1
25 25 26 1
26 25 27 2
27 25 28 1
28 28 29 1
29 28 30 1
30 28 31 1
31 32 33 1
32 32 34 2
33 32 35 1
34 35 36 1
35 35 37 1
36 35 38 1
37 39 40 1
38 39 41 2
39 39 42 1
40 42 43 1
41 42 44 1
42 42 45 1
43 46 47 1
44 46 48 2
45 46 49 1
46 49 50 1
47 49 51 1
48 49 52 1
49 53 54 1
50 53 55 2
51 53 56 1
52 56 57 1
53 56 58 1
54 56 59 1
55 60 61 1
56 60 62 2
57 60 63 1
58 63 64 1
59 63 65 1
60 63 66 1
61 67 68 1
62 67 69 2
63 67 70 1
64 70 71 1
65 70 72 1
66 70 73 1
67 74 75 1
68 74 76 2
69 74 77 1
70 77 78 1
71 77 79 1
72 77 80 1
73 81 82 1
74 81 83 2
75 81 84 1
76 84 85 1
77 84 86 1
78 84 87 1
79 88 89 1
80 88 90 2
81 88 91 1
82 91 92 1
83 91 93 1
84 91 94 1
85 95 96 1
86 95 97 2
87 95 98 1
88 98 99 1
89 98 100 1
90 98 101 1
91 102 103 1
92 102 104 2
93 102 105 1
94 105 106 1
95 105 107 1
96 105 108 1
97 109 110 1
98 109 111 2
99 109 112 1
100 112 113 1
101 112 114 1
102 112 115 1
103 116 117 1
104 116 118 2
105 116 119 1
106 119 120 1
107 119 121 1
108 119 122 1
109 123 124 1
110 123 125 2
111 123 126 1
112 126 127 1
113 126 128 1
114 126 129 1
115 130 131 1
116 130 132 2
117 130 133 1
118 133 134 1
119 133 135 1
120 133 136 1
121 137 138 1
122 137 139 2
123 137 140 1
124 140 141 1
125 140 142 1
126 140 143 1
127 144 145 1
128 144 146 2
129 144 147 1
130 147 148 1
131 147 149 1
132 147 150 1
133 151 152 1
134 151 153 2
135 151 154 1
136 154 155 1
137 154 156 1
138 154 157 1
139 158 159 1
140 158 160 2
141 158 161 1
142 161 162 1
143 161 163 1
144 161 164 1
145 165 166 1
146 165 167 2
147 165 168 1
148 168 169 1
149 168 170 1
150 168 171 1
151 172 173 1
152 172 174 2
153 172 175 1
154 175 176 1
155 175 177 1
156 175 178 1
157 179 180 1
158 179 181 2
159 179 182 1
160 182 183 1
161 182 184 1
162 182 185 1
163 186 187 1
164 186 188 2
165 186 189 1
166 189 190 1
167 189 191 1
168 189 192 1
169 193 194 1
170 193 195 2
171 193 196 1
172 196 197 1
173 196 198 1
174 196 199 1
175 200 201 1
176 200 202 2
177 200 203 1
178 203 204 1
179 203 205 1
180 203 206 1
181 207 208 1
182 207 209 2
183 207 210 1
184 210 211 1
185 210 212 1
186 210 213 1
187 214 215 1
188 214 216 2
189 214 217 1
190 217 218 1
191 217 219 1
192 217 220 1
193 221 222 1
194 221 223 2
195 221 224 1
196 224 225 1
197 224 226 1
198 224 227 1
199 228 229 1
200 228 230 2
201 228 231 1
202 231 232 1
203 231 233 1
204 231 234 1
205 235 236 1
206 235 237 2
207 235 238 1
208 238 239 1
209 238 240 1
210 238 241 1
211 242 243 1
212 242 244 2
213 242 245 1
214 245 246 1
215 245 247 1
216 245 248 1
217 249 250 1
218 249 251 2
219 249 252 1
220 252 253 1
221 252 254 1
222 252 255 1
223 256 257 1
224 256 258 2
225 256 259 1
226 259 260 1
227 259 261 1
228 259 262 1
229 263 264 1
230 263 265 2
231 263 266 1
232 266 267 1
233 266 268 1
234 266 269 1
235 270 271 1
236 270 272 2
237 270 273 1
238 273 274 1
239 273 275 1
240 273 276 1
241 277 278 1
242 277 279 2
243 277 280 1
244 280 281 1
245 280 282 1
246 280 283 1
247 284 285 1
248 284 286 2
249 284 287 1
250 287 288 1
251 287 289 1
252 287 290 1
253 291 292 1
254 291 293 2
255 291 294 1
256 294 295 1
257 294 296 1
258 294 297 1
259 298 299 1
260 298 300 2
261 298 301 1
262 301 302 1
263 301 303 1
264 301 304 1
265 305 306 1
266 305 307 2
267 305 308 1
268 308 309 1
269 308 310 1
270 308 311 1
271 312 313 1
272 312 314 2
273 312 315 1
274 315 316 1
275 315 317 1
276 315 318 1
277 319 320 1
278 319 321 2
279 319 322 1
280 322 323 1
281 322 324 1
282 322 325 1
283 326 327 1
284 326 328 2
285 326 329 1
286 329 330 1
287 329 331 1
288 329 332 1
289 333 334 1
290 333 335 2
291 333 336 1
292 336 337 1
293 336 338 1
294 336 339 1
295 340 341 1
296 340 342 2
297 340 343 1
298 343 344 1
299 343 345 1
300 343 346 1
301 347 348 1
302 347 349 2
303 347 350 1
304 350 351 1
305 350 352 1
306 350 353 1
307 354 355 1
308 354 356 2
309 354 357 1
310 357 358 1
311 357 359 1
312 357 360 1
313 361 362 1
314 361 363 2
315 361 364 1
316 364 365 1
317 364 366 1
318 364 367 1
