@<TRIPOS>MOLECULE
Molecule Name
353 306
SMALL
NO_CHARGES

@<TRIPOS>ATOM
1 C1	0.0000	0.0000	0.0000 C
2 O2	-1.2245	0.0000	0.0000 O
3 O3	0.6872	1.2062	0.0000 O
4 H4	1.6592	1.0935	0.0238 H
5 N5	0.4452	-2.2653	0.9577 N
6 C6	-0.3140	-2.8085	3.1867 C
7 H7	-0.9656	-3.6059	2.8526 H
8 H8	-0.2634	-2.6373	4.2544 H
9 C9	0.4016	-2.0356	2.3397 C
10 C10	1.2664	-0.9022	2.8506 C
11 H11	0.9403	0.0764	2.4768 H
12 H12	1.2219	-0.8631	3.9408 H
13 H13	2.3169	-1.0390	2.5601 H
14 C14	0.5091	-3.4918	-1.0438 C
15 C15	-0.1554	-3.4560	0.3399 C
16 C16	0.8630	-1.2735	-0.0372 C
17 C17	0.6524	-1.9982	-1.4070 C
18 H18	1.4932	-3.9689	-0.9726 H
19 H19	-0.0822	-4.0386	-1.7840 H
20 H20	0.0759	-4.3383	0.9458 H
21 H21	-1.2506	-3.3699	0.2650 H
22 H22	1.9214	-1.0044	0.1040 H
23 H23	-0.2748	-1.6364	-1.8629 H
24 H24	1.4746	-1.7997	-2.1001 H
25 C25	3.5005	3.6638	-0.6521 C
26 H26	3.6114	3.4945	-1.7400 H
27 O27	3.2880	2.7102	0.1051 O
28 C28	3.6265	5.0932	-0.2046 C
29 H29	2.8706	5.7134	-0.7045 H
30 H30	3.5044	5.1669	0.8781 H
31 H31	4.6070	5.4942	-0.4936 H
32 C32	4.3900	1.7109	-2.0689 C
33 H33	4.6653	0.7714	-2.5847 H
34 O34	3.4145	1.7384	-1.3102 O
35 C35	5.2713	2.8921	-2.3639 C
36 H36	5.2691	3.1051	-3.4413 H
37 H37	4.9281	3.7717	-1.8151 H
38 H38	6.3099	2.6667	-2.0876 H
39 C39	5.1925	0.0942	-0.1830 C
40 H40	5.9289	-0.6672	-0.5030 H
41 O41	4.0873	-0.2547	0.2470 O
42 C42	5.6414	1.5226	-0.3143 C
43 H43	5.8976	1.7433	-1.3592 H
44 H44	4.8562	2.2026	0.0226 H
45 H45	6.5518	1.6881	0.2769 H
46 C46	2.9989	1.8105	-2.0370 C
47 H47	2.8018	2.5982	-1.2851 H
48 O48	3.3044	0.6692	-1.6734 O
49 C49	2.8665	2.2390	-3.4715 C
50 H50	3.5577	3.0656	-3.6840 H
51 H51	3.0774	1.4027	-4.1413 H
52 H52	1.8530	2.6170	-3.6607 H
53 C53	4.9268	0.2884	-1.0587 C
54 H54	5.2361	1.1370	-0.4194 H
55 O55	3.9926	-0.4421	-0.7097 O
56 C56	5.7117	0.1166	-2.3289 C
57 H57	6.7760	-0.0264	-2.0987 H
58 H58	5.3402	-0.7402	-2.8950 H
59 H59	5.6395	1.0241	-2.9430 H
60 C60	-2.1605	-0.3750	-4.3142 C
61 H61	-2.2907	-0.6010	-5.3896 H
62 O62	-1.0832	-0.6130	-3.7569 O
63 C63	-3.3590	0.2196	-3.6293 C
64 H64	-4.2175	-0.4602	-3.7126 H
65 H65	-3.1422	0.4097	-2.5760 H
66 H66	-3.6486	1.1575	-4.1217 H
67 C67	3.9869	-0.6526	-3.2185 C
68 H68	4.7093	-1.2843	-2.6676 H
69 O69	3.0082	-0.1756	-2.6331 O
70 C70	4.2936	-0.4399	-4.6745 C
71 H71	4.3382	-1.4054	-5.1959 H
72 H72	3.5327	0.1923	-5.1371 H
73 H73	5.2807	0.0275	-4.7881 H
74 C74	-3.7153	-0.8662	1.1279 C
75 H75	-3.4302	-0.6409	0.0826 H
76 O76	-3.5330	-1.9982	1.5897 O
77 C77	-4.3158	0.2785	1.8949 C
78 H78	-5.2195	0.6406	1.3868 H
79 H79	-4.5657	-0.0320	2.9116 H
80 H80	-3.6121	1.1208	1.9286 H
81 C81	-3.5173	-1.9482	-1.7843 C
82 H82	-4.4008	-2.0657	-1.1283 H
83 O83	-2.4506	-2.5002	-1.4921 O
84 C84	-3.7272	-1.0956	-3.0042 C
85 H85	-4.0445	-0.0864	-2.7095 H
86 H86	-2.8081	-1.0348	-3.5908 H
87 H87	-4.5329	-1.5131	-3.6226 H
88 C88	4.3922	-2.6370	-3.2914 C
89 H89	4.9307	-3.1379	-2.4646 H
90 O90	3.5680	-1.7489	-3.0460 O
91 C91	4.7407	-3.1153	-4.6730 C
92 H92	4.5373	-4.1908	-4.7627 H
93 H93	4.1652	-2.5690	-5.4232 H
94 H94	5.8142	-2.9792	-4.8600 H
95 C95	4.8145	-1.3175	2.4252 C
96 H96	4.2726	-2.2700	2.5793 H
97 O97	4.3524	-0.4574	1.6671 O
98 C98	6.1021	-1.1760	3.1875 C
99 H99	6.7926	-1.9855	2.9158 H
100 H100	6.5670	-0.2106	2.9766 H
101 H101	5.9146	-1.2678	4.2656 H
102 C102	-4.1915	3.1922	-0.5533 C
103 H103	-4.1981	3.7250	0.4166 H
104 O104	-4.4160	3.8090	-1.6008 O
105 C105	-3.8980	1.7199	-0.4797 C
106 H106	-4.6394	1.2185	0.1567 H
107 H107	-3.9115	1.2771	-1.4778 H
108 H108	-2.9171	1.5532	-0.0151 H
109 C109	-3.0248	3.4790	1.6212 C
110 H110	-2.3395	3.2600	2.4621 H
111 O111	-3.9818	4.2440	1.7849 O
112 C112	-2.6975	2.7918	0.3252 C
113 H113	-2.6987	1.7025	0.4646 H
114 H114	-3.4218	3.0641	-0.4454 H
115 H115	-1.6870	3.0680	-0.0040 H
116 C116	4.9047	-2.9819	2.2416 C
117 H117	5.3747	-3.9681	2.0648 H
118 O118	4.6369	-2.2430	1.2876 O
119 C119	4.6362	-2.6430	3.6811 C
120 H120	5.5730	-2.6593	4.2539 H
121 H121	4.1736	-1.6571	3.7619 H
122 H122	3.9771	-3.3979	4.1302 H
123 C123	-2.1277	-1.6315	-4.3620 C
124 H124	-2.1489	-0.8428	-5.1380 H
125 O125	-1.0477	-2.0959	-3.9797 O
126 C126	-3.4704	-2.0634	-3.8427 C
127 H127	-4.0904	-2.4407	-4.6669 H
128 H128	-3.3551	-2.8407	-3.0844 H
129 H129	-4.0030	-1.2046	-3.4130 H
130 C130	-3.6734	-0.5014	-2.2725 C
131 H131	-2.7608	-0.2886	-1.6840 H
132 O132	-4.2202	-1.6070	-2.1899 O
133 C133	-4.1609	0.6257	-3.1391 C
134 H134	-3.3796	0.9180	-3.8533 H
135 H135	-5.0614	0.3293	-3.6811 H
136 H136	-4.3746	1.5098	-2.5238 H
137 C137	-4.3585	-3.0431	1.1734 C
138 H138	-4.3713	-2.1468	1.8223 H
139 O139	-3.3497	-3.7556	1.1207 O
140 C140	-5.6218	-3.2993	0.4005 C
141 H141	-5.8510	-2.4401	-0.2439 H
142 H142	-5.5207	-4.1992	-0.2099 H
143 H143	-6.4693	-3.4138	1.0893 H
144 C144	-4.0386	-2.3337	-1.3036 C
145 H145	-4.5923	-2.0293	-0.3951 H
146 O146	-2.8468	-2.6523	-1.2253 O
147 C147	-4.8340	-2.3235	-2.5788 C
148 H148	-5.2318	-1.3174	-2.7676 H
149 H149	-4.2117	-2.6359	-3.4201 H
150 H150	-5.6986	-2.9946	-2.4900 H
151 C151	-2.6973	-4.5976	-3.2651 C
152 H152	-2.3903	-3.6698	-3.7843 H
153 O153	-1.8804	-5.2243	-2.5811 O
154 C154	-4.1312	-5.0033	-3.4609 C
155 H155	-4.3397	-5.1495	-4.5292 H
156 H156	-4.3457	-5.9248	-2.9156 H
157 H157	-4.8004	-4.2048	-3.1139 H
158 C158	-3.5055	-4.1562	2.0560 C
159 H159	-3.2904	-3.0834	1.8903 H
160 O160	-2.5921	-4.9872	2.0003 O
161 C161	-4.9429	-4.4904	2.3411 C
162 H162	-5.5794	-4.1603	1.5093 H
163 H163	-5.0630	-5.5654	2.4910 H
164 H164	-5.2855	-3.9525	3.2350 H
165 C165	4.5311	-3.0336	-0.9436 C
166 H166	5.3749	-3.5416	-0.4391 H
167 O167	3.6802	-2.4344	-0.2766 O
168 C168	4.5184	-3.1365	-2.4431 C
169 H169	4.4874	-4.1908	-2.7490 H
170 H170	3.6554	-2.6092	-2.8551 H
171 H171	5.4425	-2.7131	-2.8584 H
172 C172	4.2004	0.8626	3.0092 C
173 H173	3.5712	0.6737	3.8997 H
174 O174	4.3316	-0.0125	2.1461 O
175 C175	4.8484	2.2176	2.9515 C
176 H176	5.4860	2.3690	3.8328 H
177 H177	5.4472	2.3166	2.0437 H
178 H178	4.0822	3.0039	2.9759 H
179 C179	-2.2277	-1.4367	-4.1753 C
180 H180	-2.7616	-2.3677	-3.9053 H
181 O181	-1.0032	-1.3587	-4.0253 O
182 C182	-3.0904	-0.3305	-4.7151 C
183 H183	-3.8589	-0.0579	-3.9795 H
184 H184	-2.4836	0.5455	-4.9540 H
185 H185	-3.6197	-0.6697	-5.6154 H
186 C186	4.2587	-1.5082	-1.9989 C
187 H187	4.3545	-0.4495	-2.3065 H
188 O188	3.8486	-1.7901	-0.8673 O
189 C189	4.6552	-2.5209	-3.0363 C
190 H190	5.7010	-2.3667	-3.3342 H
191 H191	4.5295	-3.5342	-2.6491 H
192 H192	4.0460	-2.3932	-3.9409 H
193 C193	0.5971	-7.3943	2.5939 C
194 H194	1.5729	-7.5535	3.0909 H
195 O195	0.4310	-6.4193	1.8524 O
196 C196	-0.4554	-8.4252	2.8915 C
197 H197	-0.6485	-8.4667	3.9718 H
198 H198	-1.3811	-8.1905	2.3619 H
199 H199	-0.1025	-9.4217	2.5942 H
200 C200	0.7121	-7.2711	1.1027 C
201 H201	-0.3668	-7.2118	1.3420 H
202 O202	1.3291	-6.2540	0.7669 O
203 C203	1.3255	-8.6383	1.2192 C
204 H204	0.8099	-9.3416	0.5518 H
205 H205	2.3873	-8.6036	0.9663 H
206 H206	1.2017	-9.0219	2.2406 H
207 C207	0.0177	0.9875	5.7594 C
208 H208	0.8726	1.6598	5.5552 H
209 O209	0.2034	-0.2267	5.8980 O
210 C210	-1.3246	1.6579	5.8480 C
211 H211	-1.5469	2.1835	4.9097 H
212 H212	-2.1064	0.9229	6.0511 H
213 H213	-1.3161	2.4166	6.6418 H
214 C214	0.8904	-3.6326	6.8107 C
215 H215	1.9334	-3.9542	6.9933 H
216 O216	0.6596	-2.5062	6.3569 O
217 C217	-0.1668	-4.6456	7.1502 C
218 H218	-0.0976	-4.9227	8.2106 H
219 H219	-1.1610	-4.2458	6.9395 H
220 H220	-0.0084	-5.5652	6.5714 H
221 C221	-0.1285	4.2805	-3.0846 C
222 H222	-1.2340	4.2684	-3.1323 H
223 O223	0.4984	5.2675	-3.4857 O
224 C224	0.5072	3.0438	-2.5141 C
225 H225	0.2212	2.1645	-3.1067 H
226 H226	1.5947	3.1424	-2.5049 H
227 H227	0.1437	2.8693	-1.4926 H
228 C228	5.2779	-2.3798	2.4981 C
229 H229	5.0271	-3.4421	2.6804 H
230 O230	4.5408	-1.4862	2.9294 O
231 C231	6.5379	-2.1387	1.7149 C
232 H232	6.4711	-2.6256	0.7328 H
233 H233	6.7070	-1.0679	1.5830 H
234 H234	7.3961	-2.5869	2.2330 H
235 C235	-0.2095	-3.7987	7.2734 C
236 H236	-0.0935	-4.0515	8.3445 H
237 O237	0.4668	-2.8926	6.7737 O
238 C238	-1.2176	-4.6213	6.5208 C
239 H239	-2.2084	-4.5200	6.9834 H
240 H240	-1.2659	-4.3052	5.4766 H
241 H241	-0.9510	-5.6852	6.5725 H
242 C242	4.8989	-4.0235	0.7241 C
243 H243	5.3424	-5.0162	0.9300 H
244 O244	4.8204	-3.6087	-0.4377 O
245 C245	4.4245	-3.2647	1.9318 C
246 H246	5.2578	-3.1054	2.6290 H
247 H247	4.0033	-2.3013	1.6368 H
248 H248	3.6672	-3.8490	2.4713 H
249 C249	-0.3135	-2.9317	7.6308 C
250 H250	-0.2128	-3.9257	8.1066 H
251 O251	0.1676	-2.7294	6.5103 O
252 C252	-1.0543	-1.9017	8.4367 C
253 H253	-0.5540	-1.7461	9.4019 H
254 H254	-1.1059	-0.9558	7.8933 H
255 H255	-2.0697	-2.2553	8.6595 H
256 C256	-2.1727	0.3175	3.8295 C
257 H257	-2.4424	-0.7555	3.8110 H
258 O258	-1.0729	0.6875	3.4034 O
259 C259	-3.2189	1.2371	4.3942 C
260 H260	-3.4578	0.9485	5.4265 H
261 H261	-2.8699	2.2717	4.3737 H
262 H262	-4.1493	1.1499	3.8174 H
263 C263	-0.1075	4.7457	-2.0590 C
264 H264	0.3035	4.6212	-3.0788 H
265 O265	0.0792	5.7993	-1.4399 O
266 C266	-0.8764	3.5702	-1.5243 C
267 H267	-0.2369	2.6776	-1.5056 H
268 H268	-1.2438	3.7796	-0.5174 H
269 H269	-1.7224	3.3400	-2.1855 H
270 C270	-2.8325	-5.7965	1.4800 C
271 H271	-3.3530	-4.8202	1.4585 H
272 O272	-1.6225	-5.8592	1.2354 O
273 C273	-3.6942	-6.9807	1.8182 C
274 H274	-4.5142	-7.0702	1.0932 H
275 H275	-3.1012	-7.8977	1.8168 H
276 H276	-4.1567	-6.8417	2.8043 H
277 C277	-2.3994	-0.0979	6.5121 C
278 H278	-3.0537	-0.9850	6.6097 H
279 O279	-2.1185	0.5776	7.5085 O
280 C280	-1.9089	0.1933	5.1215 C
281 H281	-2.7605	0.3468	4.4452 H
282 H282	-1.2731	1.0812	5.1185 H
283 H283	-1.3458	-0.6653	4.7322 H
284 C284	1.9473	5.3716	0.9019 C
285 H285	1.2195	5.8997	0.2569 H
286 O286	2.9800	5.9435	1.2682 O
287 C287	1.5788	3.9622	1.2720 C
288 H288	1.4531	3.3545	0.3660 H
289 H289	2.3495	3.5197	1.9067 H
290 H290	0.6152	3.9496	1.7983 H
291 C291	0.0280	3.4297	2.9614 C
292 H292	-0.9159	3.8542	3.3531 H
293 O293	0.1640	2.2048	2.8658 O
294 C294	1.0773	4.4344	2.5759 C
295 H295	1.3403	5.0568	3.4416 H
296 H296	1.9705	3.9297	2.2016 H
297 H297	0.6861	5.1121	1.8055 H
298 C298	-4.8045	-1.9630	2.2332 C
299 H299	-5.6553	-2.2678	1.5947 H
300 O300	-5.0090	-1.5275	3.3719 O
301 C301	-3.4436	-2.1208	1.6149 C
302 H302	-3.3783	-1.5315	0.6905 H
303 H303	-2.6673	-1.7978	2.3117 H
304 H304	-3.2754	-3.1692	1.3349 H
305 C305	-5.2914	-3.5369	-0.9537 C
306 H306	-5.8873	-2.6175	-0.7983 H
307 O307	-5.5432	-4.2852	-1.9048 O
308 C308	-4.2005	-3.7775	0.0519 C
309 H309	-4.6255	-3.8376	1.0628 H
310 H310	-3.6663	-4.7019	-0.1774 H
311 H311	-3.4963	-2.9349	0.0538 H
312 C312	-0.0719	4.3584	2.4386 C
313 H313	0.8137	4.6412	1.8384 H
314 O314	-0.7753	5.2335	2.9557 O
315 C315	-0.3258	2.8819	2.5594 C
316 H316	0.5418	2.3856	3.0143 H
317 H317	-1.2149	2.6952	3.1654 H
318 H318	-0.4582	2.4388	1.5634 H
319 C319	-3.1764	0.5082	2.0392 C
320 H320	-2.8254	1.2640	1.3111 H
321 O321	-4.2053	-0.1387	1.8136 O
322 C322	-2.3254	0.3508	3.2680 C
323 H323	-2.2573	1.3062	3.8051 H
324 H324	-2.7440	-0.4122	3.9278 H
325 H325	-1.3015	0.0726	2.9851 H
326 C326	-1.3438	1.0618	6.1331 C
327 H327	-0.5405	1.4948	5.5073 H
328 O328	-1.5883	1.5407	7.2462 O
329 C329	-2.0735	-0.1061	5.5310 C
330 H330	-1.3681	-0.9177	5.3079 H
331 H331	-2.8453	-0.4678	6.2137 H
332 H332	-2.5321	0.1864	4.5771 H
333 C333	2.6624	5.3370	-0.2858 C
334 H334	2.4713	5.7642	0.7169 H
335 O335	3.5711	5.7913	-0.9901 O
336 C336	1.7570	4.2075	-0.6902 C
337 H337	0.7102	4.5395	-0.6772 H
338 H338	2.0159	3.8487	-1.6886 H
339 H339	1.8368	3.3830	0.0306 H
340 C340	-1.2308	0.2943	6.1671 C
341 H341	-0.1588	0.0330	6.2517 H
342 O342	-1.8604	0.6596	7.1662 O
343 C343	-1.8196	0.1690	4.7899 C
344 H344	-1.7107	-0.8611	4.4250 H
345 H345	-2.8760	0.4454	4.7991 H
346 H346	-1.2756	0.8134	4.0866 H
347 C347	-3.1498	-2.1384	-5.0998 C
348 H348	-3.6625	-1.1809	-5.3116 H
349 O349	-3.0466	-2.9952	-5.9848 O
350 C350	-2.6170	-2.2907	-3.7026 C
351 H351	-3.4338	-2.1964	-2.9746 H
352 H352	-2.1291	-3.2604	-3.5832 H
353 H353	-1.9013	-1.4877	-3.4818 H
@<TRIPOS>BOND
1 1 2 2
2 1 3 1
3 1 16 1
4 3 4 1
5 5 9 1
6 5 15 1
7 5 16 1
8 6 7 1
9 6 8 1
10 6 9 2
11 9 10 1
12 10 11 1
13 10 12 1
14 10 13 1
15 14 15 1
16 14 17 1
17 14 18 1
18 14 19 1
19 15 20 1
20 15 21 1
21 16 17 1
22 16 22 1
23 17 23 1
24 17 24 1
25 25 26 1
26 25 27 2
27 25 28 1
28 28 29 1
29 28 30 1
30 28 31 1
31 32 33 1
32 32 34 2
33 32 35 1
34 35 36 1
35 35 37 1
36 35 38 1
37 39 40 1
38 39 41 2
39 39 42 1
40 42 43 1
41 42 44 1
42 42 45 1
43 46 47 1
44 46 48 2
45 46 49 1
46 49 50 1
47 49 51 1
48 49 52 1
49 53 54 1
50 53 55 2
51 53 56 1
52 56 57 1
53 56 58 1
54 56 59 1
55 60 61 1
56 60 62 2
57 60 63 1
58 63 64 1
59 63 65 1
60 63 66 1
61 67 68 1
62 67 69 2
63 67 70 1
64 70 71 1
65 70 72 1
66 70 73 1
67 74 75 1
68 74 76 2
69 74 77 1
70 77 78 1
71 77 79 1
72 77 80 1
73 81 82 1
74 81 83 2
75 81 84 1
76 84 85 1
77 84 86 1
78 84 87 1
79 88 89 1
80 88 90 2
81 88 91 1
82 91 92 1
83 91 93 1
84 91 94 1
85 95 96 1
86 95 97 2
87 95 98 1
88 98 99 1
89 98 100 1
90 98 101 1
91 102 103 1
92 102 104 2
93 102 105 1
94 105 106 1
95 105 107 1
96 105 108 1
97 109 110 1
98 109 111 2
99 109 112 1
100 112 113 1
101 112 114 1
102 112 115 1
103 116 117 1
104 116 118 2
105 116 119 1
106 119 120 1
107 119 121 1
108 119 122 1
109 123 124 1
110 123 125 2
111 123 126 1
112 126 127 1
113 126 128 1
114 126 129 1
115 130 131 1
116 130 132 2
117 130 133 1
118 133 134 1
119 133 135 1
120 133 136 1
121 137 138 1
122 137 139 2
123 137 140 1
124 140 141 1
125 140 142 1
126 140 143 1
127 144 145 1
128 144 146 2
129 144 147 1
130 147 148 1
131 147 149 1
132 147 150 1
133 151 152 1
134 151 153 2
135 151 154 1
136 154 155 1
137 154 156 1
138 154 157 1
139 158 159 1
140 158 160 2
141 158 161 1
142 161 162 1
143 161 163 1
144 161 164 1
145 165 166 1
146 165 167 2
147 165 168 1
148 168 169 1
149 168 170 1
150 168 171 1
151 172 173 1
152 172 174 2
153 172 175 1
154 175 176 1
155 175 177 1
156 175 178 1
157 179 180 1
158 179 181 2
159 179 182 1
160 182 183 1
161 182 184 1
162 182 185 1
163 186 187 1
164 186 188 2
165 186 189 1
166 189 190 1
167 189 191 1
168 189 192 1
169 193 194 1
170 193 195 2
171 193 196 1
172 196 197 1
173 196 198 1
174 196 199 1
175 200 201 1
176 200 202 2
177 200 203 1
178 203 204 1
179 203 205 1
180 203 206 1
181 207 208 1
182 207 209 2
183 207 210 1
184 210 211 1
185 210 212 1
186 210 213 1
187 214 215 1
188 214 216 2
189 214 217 1
190 217 218 1
191 217 219 1
192 217 220 1
193 221 222 1
194 221 223 2
195 221 224 1
196 224 225 1
197 224 226 1
198 224 227 1
199 228 229 1
200 228 230 2
201 228 231 1
202 231 232 1
203 231 233 1
204 231 234 1
205 235 236 1
206 235 237 2
207 235 238 1
208 238 239 1
209 238 240 1
210 238 241 1
211 242 243 1
212 242 244 2
213 242 245 1
214 245 246 1
215 245 247 1
216 245 248 1
217 249 250 1
218 249 251 2
219 249 252 1
220 252 253 1
221 252 254 1
222 252 255 1
223 256 257 1
224 256 258 2
225 256 259 1
226 259 260 1
227 259 261 1
228 259 262 1
229 263 264 1
230 263 265 2
231 263 266 1
232 266 267 1
233 266 268 1
234 266 269 1
235 270 271 1
236 270 272 2
237 270 273 1
238 273 274 1
239 273 275 1
240 273 276 1
241 277 278 1
242 277 279 2
243 277 280 1
244 280 281 1
245 280 282 1
246 280 283 1
247 284 285 1
248 284 286 2
249 284 287 1
250 287 288 1
251 287 289 1
252 287 290 1
253 291 292 1
254 291 293 2
255 291 294 1
256 294 295 1
257 294 296 1
258 294 297 1
259 298 299 1
260 298 300 2
261 298 301 1
262 301 302 1
263 301 303 1
264 301 304 1
265 305 306 1
266 305 307 2
267 305 308 1
268 308 309 1
269 308 310 1
270 308 311 1
271 312 313 1
272 312 314 2
273 312 315 1
274 315 316 1
275 315 317 1
276 315 318 1
277 319 320 1
278 319 321 2
279 319 322 1
280 322 323 1
281 322 324 1
282 322 325 1
283 326 327 1
284 326 328 2
285 326 329 1
286 329 330 1
287 329 331 1
288 329 332 1
289 333 334 1
290 333 335 2
291 333 336 1
292 336 337 1
293 336 338 1
294 336 339 1
295 340 341 1
296 340 342 2
297 340 343 1
298 343 344 1
299 343 345 1
300 343 346 1
301 347 348 1
302 347 349 2
303 347 350 1
304 350 351 1
305 350 352 1
306 350 353 1
