@<TRIPOS>MOLECULE
Molecule Name
143 126
SMALL
NO_CHARGES

@<TRIPOS>ATOM
1 C1	0.0000	0.0000	0.0000 C
2 O2	-1.2307	0.0000	0.0000 O
3 O3	0.7406	1.1694	0.0000 O
4 H4	0.1452	1.9503	-0.0180 H
5 N5	0.2909	-2.4542	0.3689 N
6 C6	-1.0495	-3.7549	1.9028 C
7 H7	-1.3992	-4.4403	1.1412 H
8 H8	-1.3921	-3.9368	2.9134 H
9 C9	-0.2461	-2.6991	1.6382 C
10 C10	0.1637	-1.7363	2.7320 C
11 H11	-0.2344	-0.7287	2.5613 H
12 H12	-0.2230	-2.0813	3.6932 H
13 H13	1.2551	-1.6555	2.8153 H
14 C14	1.2878	-2.9970	-1.6915 C
15 C15	0.1574	-3.4117	-0.7359 C
16 C16	0.9264	-1.2058	-0.0459 C
17 C17	1.3529	-1.4636	-1.5322 C
18 H18	2.2306	-3.4555	-1.3719 H
19 H19	1.0986	-3.2967	-2.7267 H
20 H20	0.2807	-4.4311	-0.3553 H
21 H21	-0.8312	-3.3484	-1.2182 H
22 H22	1.8025	-0.9674	0.5690 H
23 H23	0.6376	-0.9866	-2.2121 H
24 H24	2.3396	-1.0435	-1.7397 H
25 C25	-2.8513	2.6853	-0.8493 C
26 H26	-3.1206	2.6589	0.2237 H
27 O27	-1.6642	2.7453	-1.1889 O
28 C28	-4.0087	2.6434	-1.8072 C
29 H29	-4.6811	3.4921	-1.6243 H
30 H30	-3.6523	2.6732	-2.8390 H
31 H31	-4.5988	1.7313	-1.6467 H
32 C32	-2.3245	3.9812	-0.6439 C
33 H33	-2.6701	3.8369	0.3975 H
34 O34	-1.2962	3.4204	-1.0389 O
35 C35	-3.1819	4.8796	-1.4905 C
36 H36	-3.2502	5.8762	-1.0342 H
37 H37	-2.7685	4.9646	-2.4977 H
38 H38	-4.2051	4.4846	-1.5437 H
39 C39	-0.9086	3.1351	2.2887 C
40 H40	-1.1094	2.0492	2.2168 H
41 O41	-0.3387	3.7226	1.3623 O
42 C42	-1.3717	3.7953	3.5571 C
43 H43	-0.8934	3.3224	4.4252 H
44 H44	-1.1340	4.8610	3.5422 H
45 H45	-2.4546	3.6603	3.6793 H
46 C46	-1.6323	3.1166	1.9854 C
47 H47	-2.3668	2.7741	1.2319 H
48 O48	-0.4829	3.4132	1.6403 O
49 C49	-2.1398	3.1836	3.3985 C
50 H50	-2.4921	2.1946	3.7205 H
51 H51	-1.3524	3.5298	4.0715 H
52 H52	-3.0012	3.8619	3.4586 H
53 C53	-0.8656	5.0052	-0.8921 C
54 H54	-1.4085	5.1987	0.0526 H
55 O55	-0.4354	3.8729	-1.1389 O
56 C56	-0.7088	6.1914	-1.8017 C
57 H57	-0.1724	6.9969	-1.2827 H
58 H58	-0.1641	5.9105	-2.7056 H
59 H59	-1.6945	6.5913	-2.0741 H
60 C60	-1.6788	4.5458	1.2575 C
61 H61	-1.4760	5.3617	0.5379 H
62 O62	-1.3373	3.3875	0.9935 O
63 C63	-2.3746	4.9594	2.5239 C
64 H64	-3.3401	5.4271	2.2888 H
65 H65	-2.5336	4.0953	3.1724 H
66 H66	-1.7778	5.7137	3.0536 H
67 C67	1.3521	3.3747	-2.5569 C
68 H68	1.1934	4.0453	-3.4228 H
69 O69	0.7824	3.6026	-1.4838 O
70 C70	2.2804	2.2174	-2.7977 C
71 H71	3.2690	2.5839	-3.1051 H
72 H72	2.3782	1.6113	-1.8945 H
73 H73	1.9032	1.5955	-3.6204 H
74 C74	1.1734	4.8951	0.9375 C
75 H75	0.5833	4.7742	1.8658 H
76 O76	1.1370	4.0231	0.0620 O
77 C77	1.9835	6.1579	0.8467 C
78 H78	2.6899	6.2144	1.6856 H
79 H79	2.5311	6.1937	-0.0975 H
80 H80	1.3266	7.0343	0.9259 H
81 C81	-2.5241	2.7998	-2.1629 C
82 H82	-3.1931	2.0235	-2.5806 H
83 O83	-1.5348	2.4729	-1.4978 O
84 C84	-2.9135	4.2195	-2.4662 C
85 H85	-3.9218	4.4247	-2.0825 H
86 H86	-2.2014	4.9154	-2.0176 H
87 H87	-2.9495	4.3774	-3.5523 H
88 C88	-2.7215	0.7541	2.9041 C
89 H89	-3.1155	0.0835	2.1169 H
90 O90	-1.5465	1.1355	2.8623 O
91 C91	-3.7026	1.1382	3.9761 C
92 H92	-4.0817	0.2395	4.4805 H
93 H93	-3.2309	1.7982	4.7072 H
94 H94	-4.5708	1.6416	3.5305 H
95 C95	4.2559	1.1555	1.0397 C
96 H96	3.8120	1.8433	0.2951 H
97 O97	3.7732	0.0302	1.2091 O
98 C98	5.4431	1.6930	1.7886 C
99 H99	5.1674	2.6112	2.3244 H
100 H100	5.8150	0.9513	2.4987 H
101 H101	6.2419	1.9641	1.0856 H
102 C102	3.9282	-2.9303	2.0182 C
103 H103	3.1391	-3.1718	2.7555 H
104 O104	3.7422	-2.0407	1.1804 O
105 C105	5.1856	-3.7466	2.1269 C
106 H106	4.9541	-4.8138	2.0111 H
107 H107	5.9059	-3.4424	1.3645 H
108 H108	5.6297	-3.6250	3.1238 H
109 C109	-4.6531	-1.6528	-1.3940 C
110 H110	-5.0248	-1.0714	-0.5289 H
111 O111	-5.1079	-1.4418	-2.5239 O
112 C112	-3.5950	-2.6731	-1.0802 C
113 H113	-3.9741	-3.3968	-0.3464 H
114 H114	-3.2881	-3.1971	-1.9878 H
115 H115	-2.7238	-2.1852	-0.6231 H
116 C116	5.1916	-1.0274	1.3013 C
117 H117	5.4781	-2.0960	1.2777 H
118 O118	4.0402	-0.6878	1.0063 O
119 C119	6.2816	-0.0750	1.7060 C
120 H120	7.1343	-0.1634	1.0197 H
121 H121	5.9122	0.9527	1.7022 H
122 H122	6.6531	-0.3299	2.7074 H
123 C123	-4.9103	0.3620	-2.2200 C
124 H124	-4.3301	1.0568	-2.8566 H
125 O125	-6.1435	0.4387	-2.1832 O
126 C126	-4.0967	-0.6344	-1.4428 C
127 H127	-3.3883	-0.1128	-0.7855 H
128 H128	-4.7475	-1.2764	-0.8453 H
129 H129	-3.4989	-1.2502	-2.1279 H
130 C130	-4.2393	-0.5130	-3.2072 C
131 H131	-5.1018	-0.2578	-2.5625 H
132 O132	-4.3277	-0.3976	-4.4348 O
133 C133	-3.0109	-0.9898	-2.4842 C
134 H134	-3.2448	-1.8847	-1.8921 H
135 H135	-2.2135	-1.2177	-3.1946 H
136 H136	-2.6674	-0.2229	-1.7772 H
137 C137	-3.6348	-3.8144	-0.3447 C
138 H138	-3.3587	-2.7823	-0.6332 H
139 O139	-2.8718	-4.7536	-0.5972 O
140 C140	-4.9603	-3.9586	0.3491 C
141 H141	-5.7659	-3.5787	-0.2932 H
142 H142	-5.1505	-5.0052	0.5962 H
143 H143	-4.9743	-3.3544	1.2659 H
@<TRIPOS>BOND
1 1 2 2
2 1 3 1
3 1 16 1
4 3 4 1
5 5 9 1
6 5 15 1
7 5 16 1
8 6 7 1
9 6 8 1
10 6 9 2
11 9 10 1
12 10 11 1
13 10 12 1
14 10 13 1
15 14 15 1
16 14 17 1
17 14 18 1
18 14 19 1
19 15 20 1
20 15 21 1
21 16 17 1
22 16 22 1
23 17 23 1
24 17 24 1
25 25 26 1
26 25 27 2
27 25 28 1
28 28 29 1
29 28 30 1
30 28 31 1
31 32 33 1
32 32 34 2
33 32 35 1
34 35 36 1
35 35 37 1
36 35 38 1
37 39 40 1
38 39 41 2
39 39 42 1
40 42 43 1
41 42 44 1
42 42 45 1
43 46 47 1
44 46 48 2
45 46 49 1
46 49 50 1
47 49 51 1
48 49 52 1
49 53 54 1
50 53 55 2
51 53 56 1
52 56 57 1
53 56 58 1
54 56 59 1
55 60 61 1
56 60 62 2
57 60 63 1
58 63 64 1
59 63 65 1
60 63 66 1
61 67 68 1
62 67 69 2
63 67 70 1
64 70 71 1
65 70 72 1
66 70 73 1
67 74 75 1
68 74 76 2
69 74 77 1
70 77 78 1
71 77 79 1
72 77 80 1
73 81 82 1
74 81 83 2
75 81 84 1
76 84 85 1
77 84 86 1
78 84 87 1
79 88 89 1
80 88 90 2
81 88 91 1
82 91 92 1
83 91 93 1
84 91 94 1
85 95 96 1
86 95 97 2
87 95 98 1
88 98 99 1
89 98 100 1
90 98 101 1
91 102 103 1
92 102 104 2
93 102 105 1
94 105 106 1
95 105 107 1
96 105 108 1
97 109 110 1
98 109 111 2
99 109 112 1
100 112 113 1
101 112 114 1
102 112 115 1
103 116 117 1
104 116 118 2
105 116 119 1
106 119 120 1
107 119 121 1
108 119 122 1
109 123 124 1
110 123 125 2
111 123 126 1
112 126 127 1
113 126 128 1
114 126 129 1
115 130 131 1
116 130 132 2
117 130 133 1
118 133 134 1
119 133 135 1
120 133 136 1
121 137 138 1
122 137 139 2
123 137 140 1
124 140 141 1
125 140 142 1
126 140 143 1
