@<TRIPOS>MOLECULE
Molecule Name
38 36
SMALL
NO_CHARGES

@<TRIPOS>ATOM
1 C1	0.0000	0.0000	0.0000 C
2 O2	-1.2224	0.0000	0.0000 O
3 O3	0.6889	1.2091	0.0000 O
4 H4	1.6619	1.0986	0.0171 H
5 N5	0.2228	-2.4953	0.2052 N
6 C6	-1.2833	-3.8880	1.4812 C
7 H7	-1.5604	-4.5006	0.6328 H
8 H8	-1.7339	-4.1436	2.4315 H
9 C9	-0.4480	-2.8287	1.3905 C
10 C10	-0.1454	-1.9642	2.5953 C
11 H11	-0.5315	-0.9457	2.4721 H
12 H12	-0.6190	-2.3887	3.4829 H
13 H13	0.9334	-1.8988	2.7894 H
14 C14	1.4256	-2.9048	-1.7756 C
15 C15	0.1962	-3.3662	-0.9773 C
16 C16	0.9088	-1.2350	-0.0444 C
17 C17	1.4871	-1.3889	-1.4950 C
18 H18	2.3246	-3.4016	-1.3936 H
19 H19	1.3444	-3.1226	-2.8446 H
20 H20	0.2672	-4.4128	-0.6630 H
21 H21	-0.7346	-3.2485	-1.5541 H
22 H22	1.7231	-1.0765	0.6818 H
23 H23	0.8497	-0.8507	-2.2057 H
24 H24	2.4984	-0.9793	-1.5771 H
25 C25	3.0369	0.8954	3.0635 C
26 H26	2.0685	0.9379	3.5973 H
27 O27	3.0635	0.8884	1.8277 O
28 C28	4.2567	0.8493	3.9405 C
29 H29	4.2149	-0.0282	4.5995 H
30 H30	5.1632	0.8092	3.3328 H
31 H31	4.2875	1.7332	4.5913 H
32 C32	3.7953	-0.6478	3.0918 C
33 H33	3.1020	-0.8280	3.9352 H
34 O34	3.3679	-0.1945	2.0241 O
35 C35	5.2352	-0.9896	3.3547 C
36 H36	5.3281	-2.0499	3.6255 H
37 H37	5.8447	-0.7812	2.4729 H
38 H38	5.6109	-0.4104	4.2086 H
@<TRIPOS>BOND
1 1 2 2
2 1 3 1
3 1 16 1
4 3 4 1
5 5 9 1
6 5 15 1
7 5 16 1
8 6 7 1
9 6 8 1
10 6 9 2
11 9 10 1
12 10 11 1
13 10 12 1
14 10 13 1
15 14 15 1
16 14 17 1
17 14 18 1
18 14 19 1
19 15 20 1
20 15 21 1
21 16 17 1
22 16 22 1
23 17 23 1
24 17 24 1
25 25 26 1
26 25 27 2
27 25 28 1
28 28 29 1
29 28 30 1
30 28 31 1
31 32 33 1
32 32 34 2
33 32 35 1
34 35 36 1
35 35 37 1
36 35 38 1
