@<TRIPOS>MOLECULE
Molecule Name
38 36
SMALL
NO_CHARGES

@<TRIPOS>ATOM
1 C1	0.0000	0.0000	0.0000 C
2 O2	-1.2229	0.0000	0.0000 O
3 O3	0.6880	1.2099	0.0000 O
4 H4	1.6609	1.1003	0.0231 H
5 N5	0.1873	-2.4895	0.1946 N
6 C6	-0.9302	-4.1097	1.5902 C
7 H7	-1.1974	-4.7528	0.7616 H
8 H8	-1.2439	-4.4316	2.5747 H
9 C9	-0.2489	-2.9503	1.4418 C
10 C10	0.0950	-2.0857	2.6347 C
11 H11	-0.3485	-1.0862	2.5496 H
12 H12	-0.2902	-2.5436	3.5478 H
13 H13	1.1798	-1.9650	2.7570 H
14 C14	0.3643	-2.2763	-2.1706 C
15 C15	-0.1536	-3.2000	-1.0503 C
16 C16	0.9015	-1.2475	-0.0452 C
17 C17	1.4670	-1.4428	-1.4831 C
18 H18	0.7407	-2.8345	-3.0322 H
19 H19	-0.4397	-1.6190	-2.5189 H
20 H20	0.3321	-4.1873	-1.0676 H
21 H21	-1.2367	-3.3618	-1.1173 H
22 H22	1.7145	-1.1048	0.6800 H
23 H23	1.6691	-0.4963	-1.9942 H
24 H24	2.4029	-2.0090	-1.4224 H
25 C25	4.7654	1.5419	0.3175 C
26 H26	4.6360	1.9706	1.3294 H
27 O27	3.9274	0.7526	-0.1330 O
28 C28	5.9962	1.9882	-0.4207 C
29 H29	6.8956	1.7305	0.1543 H
30 H30	6.0429	1.5182	-1.4054 H
31 H31	5.9939	3.0806	-0.5329 H
32 C32	4.7654	1.5419	0.3175 C
33 H33	4.6360	1.9706	1.3294 H
34 O34	3.9274	0.7526	-0.1330 O
35 C35	5.9962	1.9882	-0.4207 C
36 H36	6.8956	1.7305	0.1543 H
37 H37	6.0429	1.5182	-1.4054 H
38 H38	5.9939	3.0806	-0.5329 H
@<TRIPOS>BOND
1 1 2 2
2 1 3 1
3 1 16 1
4 3 4 1
5 5 9 1
6 5 15 1
7 5 16 1
8 6 7 1
9 6 8 1
10 6 9 2
11 9 10 1
12 10 11 1
13 10 12 1
14 10 13 1
15 14 15 1
16 14 17 1
17 14 18 1
18 14 19 1
19 15 20 1
20 15 21 1
21 16 17 1
22 16 22 1
23 17 23 1
24 17 24 1
25 25 26 1
26 25 27 2
27 25 28 1
28 28 29 1
29 28 30 1
30 28 31 1
31 32 33 1
32 32 34 2
33 32 35 1
34 35 36 1
35 35 37 1
36 35 38 1
