@<TRIPOS>MOLECULE
Molecule Name
283 246
SMALL
NO_CHARGES

@<TRIPOS>ATOM
1 C1	0.0000	0.0000	0.0000 C
2 O2	-1.2312	0.0000	0.0000 O
3 O3	0.7396	1.1696	0.0000 O
4 H4	0.1448	1.9512	-0.0088 H
5 N5	0.2533	-2.4539	0.3298 N
6 C6	-0.7252	-3.9964	1.9074 C
7 H7	-1.0814	-4.6743	1.1424 H
8 H8	-0.9318	-4.2711	2.9337 H
9 C9	-0.0565	-2.8520	1.6330 C
10 C10	0.4177	-1.9387	2.7424 C
11 H11	-0.0141	-0.9338	2.6552 H
12 H12	0.1200	-2.3449	3.7112 H
13 H13	1.5104	-1.8317	2.7458 H
14 C14	0.2371	-2.3792	-2.0519 C
15 C15	-0.1851	-3.2349	-0.8393 C
16 C16	0.9229	-1.2153	-0.0405 C
17 C17	1.3739	-1.4898	-1.5036 C
18 H18	0.5576	-2.9896	-2.9010 H
19 H19	-0.6013	-1.7564	-2.3826 H
20 H20	0.3020	-4.2217	-0.8369 H
21 H21	-1.2696	-3.4011	-0.8103 H
22 H22	1.7829	-0.9970	0.5987 H
23 H23	1.5272	-0.5703	-2.0745 H
24 H24	2.3212	-2.0394	-1.4772 H
25 C25	-2.8771	2.8067	-0.4348 C
26 H26	-2.9680	2.7986	0.6681 H
27 O27	-1.7603	2.8128	-0.9645 O
28 C28	-4.1765	2.8093	-1.1901 C
29 H29	-4.7737	3.6877	-0.9111 H
30 H30	-3.9929	2.8172	-2.2666 H
31 H31	-4.7701	1.9248	-0.9234 H
32 C32	-2.0895	3.9778	0.5865 C
33 H33	-1.8538	3.7755	1.6486 H
34 O34	-1.2438	3.7599	-0.2884 O
35 C35	-3.4676	4.5163	0.3217 C
36 H36	-3.6168	5.4570	0.8683 H
37 H37	-3.6129	4.6858	-0.7473 H
38 H38	-4.2253	3.8121	0.6901 H
39 C39	-2.3764	2.1320	1.7148 C
40 H40	-2.8375	1.2484	1.2338 H
41 O41	-1.6624	2.8950	1.0544 O
42 C42	-2.6854	2.3076	3.1751 C
43 H43	-2.3544	1.4257	3.7398 H
44 H44	-2.1919	3.2000	3.5657 H
45 H45	-3.7702	2.3904	3.3242 H
46 C46	0.0119	5.3892	0.0255 C
47 H47	0.7484	5.6475	0.8100 H
48 O48	-0.2625	4.2055	-0.2014 O
49 C49	-0.5933	6.5569	-0.7021 C
50 H50	0.1945	7.1505	-1.1847 H
51 H51	-1.3053	6.2111	-1.4545 H
52 H52	-1.1013	7.2224	0.0085 H
53 C53	-0.2146	3.8605	2.1556 C
54 H54	-0.5574	2.8651	2.4965 H
55 O55	0.1870	4.0142	0.9966 O
56 C56	-0.2803	4.9539	3.1847 C
57 H57	0.3286	4.6869	4.0587 H
58 H58	0.0751	5.8969	2.7639 H
59 H59	-1.3117	5.0746	3.5420 H
60 C60	-1.9867	3.3172	-1.8278 C
61 H61	-1.2107	3.1368	-2.5958 H
62 O62	-1.7348	3.1199	-0.6338 O
63 C63	-3.3110	3.8012	-2.3487 C
64 H64	-3.7258	3.0738	-3.0593 H
65 H65	-4.0132	3.9523	-1.5261 H
66 H66	-3.1792	4.7422	-2.8991 H
67 C67	-1.3002	3.6778	2.3688 C
68 H68	-2.3633	3.7389	2.0675 H
69 O69	-0.4172	3.5796	1.5093 O
70 C70	-1.0446	3.7232	3.8492 C
71 H71	-1.5675	2.8963	4.3482 H
72 H72	0.0260	3.6576	4.0545 H
73 H73	-1.4454	4.6534	4.2732 H
74 C74	1.5540	4.6844	-0.1687 C
75 H75	1.7256	4.4542	-1.2374 H
76 O76	0.6142	4.1559	0.4359 O
77 C77	2.5243	5.6527	0.4476 C
78 H78	2.5002	6.6077	-0.0941 H
79 H79	2.2811	5.8208	1.4989 H
80 H80	3.5487	5.2663	0.3629 H
81 C81	0.0965	4.3442	1.9466 C
82 H82	0.9501	4.8011	1.4106 H
83 O83	-0.6941	3.6111	1.3421 O
84 C84	-0.0052	4.6832	3.4073 C
85 H85	-0.0893	5.7704	3.5377 H
86 H86	-0.8719	4.1917	3.8544 H
87 H87	0.9075	4.3708	3.9319 H
88 C88	-2.8628	3.0463	1.4687 C
89 H89	-3.3021	2.3887	2.2427 H
90 O90	-1.7662	2.7694	0.9699 O
91 C91	-3.6854	4.2489	1.0997 C
92 H92	-3.8628	4.8716	1.9868 H
93 H93	-3.1784	4.8383	0.3329 H
94 H94	-4.6708	3.9338	0.7316 H
95 C95	-0.7106	2.8947	-3.0087 C
96 H96	-1.7001	2.4595	-3.2452 H
97 O97	-0.4319	3.2045	-1.8449 O
98 C98	0.2168	3.0648	-4.1792 C
99 H99	-0.2456	3.7121	-4.9363 H
100 H100	1.1654	3.4984	-3.8555 H
101 H101	0.3994	2.0948	-4.6604 H
102 C102	-3.0519	2.3100	0.0779 C
103 H103	-2.9084	2.1290	-1.0043 H
104 O104	-2.5561	3.3094	0.6102 O
105 C105	-3.8668	1.2762	0.8034 C
106 H106	-3.3989	0.2878	0.7027 H
107 H107	-3.9571	1.5336	1.8608 H
108 H108	-4.8664	1.2007	0.3552 H
109 C109	-1.2210	4.2806	-1.0864 C
110 H110	-1.6920	4.3387	-0.0867 H
111 O111	-0.0479	3.9070	-1.1980 O
112 C112	-2.0996	4.6792	-2.2388 C
113 H113	-2.4482	5.7124	-2.1080 H
114 H114	-1.5562	4.5917	-3.1820 H
115 H115	-2.9950	4.0441	-2.2683 H
116 C116	0.9185	3.8013	-2.3015 C
117 H117	0.2789	3.7046	-3.1994 H
118 O118	0.4039	3.9071	-1.1826 O
119 C119	2.3992	3.7921	-2.5589 C
120 H120	2.6699	4.6137	-3.2355 H
121 H121	2.9508	3.8916	-1.6217 H
122 H122	2.6895	2.8596	-3.0609 H
123 C123	-0.8117	4.6326	0.0320 C
124 H124	-1.2464	4.5432	1.0457 H
125 O125	-1.0275	3.7577	-0.8142 O
126 C126	0.0248	5.8583	-0.2066 C
127 H127	0.8609	5.8892	0.5048 H
128 H128	0.4115	5.8644	-1.2279 H
129 H129	-0.5727	6.7630	-0.0327 H
130 C130	-0.5652	2.8114	-3.0608 C
131 H131	-0.0059	3.7249	-3.3388 H
132 O132	-0.9562	2.6537	-1.8988 O
133 C133	-0.7931	1.8290	-4.1753 C
134 H134	0.1686	1.5018	-4.5927 H
135 H135	-1.3500	0.9623	-3.8130 H
136 H136	-1.3471	2.3081	-4.9935 H
137 C137	0.6166	4.1320	-2.1038 C
138 H138	1.3927	3.9516	-2.8718 H
139 O139	0.8686	3.9347	-0.9098 O
140 C140	-0.7076	4.6160	-2.6247 C
141 H141	-1.1224	3.8886	-3.3353 H
142 H142	-1.4098	4.7671	-1.8021 H
143 H143	-0.5758	5.5570	-3.1751 H
144 C144	1.5000	3.7548	1.8738 C
145 H145	0.7662	4.0513	2.6473 H
146 O146	1.2168	3.8663	0.6757 O
147 C147	2.8091	3.2294	2.3927 C
148 H148	2.6380	2.3492	3.0268 H
149 H149	3.4692	2.9625	1.5646 H
150 H150	3.2956	3.9848	3.0239 H
151 C151	0.8824	3.4129	-2.9423 C
152 H152	0.1786	4.0158	-3.5471 H
153 O153	0.7583	3.3633	-1.7134 O
154 C154	1.9509	2.6955	-3.7186 C
155 H155	2.5530	3.4167	-4.2874 H
156 H156	2.5970	2.1281	-3.0453 H
157 H157	1.4942	2.0167	-4.4511 H
158 C158	4.2038	-2.7813	1.7731 C
159 H159	3.8116	-2.5512	2.7820 H
160 O160	3.6983	-2.2531	0.7764 O
161 C161	5.3528	-3.7493	1.7318 C
162 H162	5.0585	-4.7044	2.1871 H
163 H163	5.6744	-3.9173	0.7018 H
164 H164	6.1938	-3.3625	2.3226 H
165 C165	4.7659	-0.7854	1.8233 C
166 H166	4.2885	-0.6700	2.8149 H
167 O167	4.0688	-0.8709	0.8060 O
168 C168	6.2684	-0.8264	1.8303 C
169 H169	6.6204	-1.6585	2.4547 H
170 H170	6.6524	-0.9416	0.8146 H
171 H171	6.6692	0.0945	2.2743 H
172 C172	-4.2262	1.0052	2.9900 C
173 H173	-3.4038	1.4361	3.5922 H
174 O174	-5.2859	0.6754	3.5343 O
175 C175	-3.9462	0.8660	1.5199 C
176 H176	-3.0654	0.2294	1.3619 H
177 H177	-4.8078	0.4347	1.0058 H
178 H178	-3.7103	1.8467	1.0859 H
179 C179	-5.2369	-0.7096	1.3365 C
180 H180	-5.6198	-1.7211	1.1022 H
181 O181	-6.0188	0.2436	1.4260 O
182 C182	-3.7492	-0.6098	1.5261 C
183 H183	-3.2296	-0.9475	0.6194 H
184 H184	-3.4609	0.4188	1.7528 H
185 H185	-3.4272	-1.2716	2.3410 H
186 C186	-1.3438	2.4466	3.1767 C
187 H187	-1.7673	2.1656	2.1937 H
188 O188	-0.7140	3.5030	3.3010 O
189 C189	-1.5946	1.4700	4.2913 C
190 H190	-1.1795	0.4868	4.0323 H
191 H191	-1.1436	1.8258	5.2200 H
192 H192	-2.6742	1.3302	4.4350 H
193 C193	-1.5485	-4.9522	6.0873 C
194 H194	-1.6065	-4.3526	7.0156 H
195 O195	-0.7527	-4.6378	5.1952 O
196 C196	-2.4832	-6.1272	6.0176 C
197 H197	-3.5232	-5.7887	6.1165 H
198 H198	-2.3586	-6.6593	5.0722 H
199 H199	-2.2919	-6.8119	6.8545 H
200 C200	-0.1512	-5.4098	5.2455 C
201 H201	-1.1768	-5.5237	4.8456 H
202 O202	0.3068	-4.2829	5.4651 O
203 C203	0.5951	-6.6924	5.4844 C
204 H204	0.6769	-7.2615	4.5488 H
205 H205	1.5930	-6.4865	5.8773 H
206 H206	0.0428	-7.3244	6.1925 H
207 C207	-5.1267	-1.9545	0.8028 C
208 H208	-5.7064	-1.7473	-0.1168 H
209 O209	-5.4532	-1.4288	1.8729 O
210 C210	-3.9619	-2.8896	0.6354 C
211 H211	-3.2572	-2.4863	-0.1040 H
212 H212	-3.4497	-3.0366	1.5886 H
213 H213	-4.3074	-3.8576	0.2489 H
214 C214	1.0274	1.5607	-4.0011 C
215 H215	1.4539	1.6340	-5.0196 H
216 O216	0.3052	0.6041	-3.6990 O
217 C217	1.3918	2.6797	-3.0661 C
218 H218	1.0642	3.6416	-3.4826 H
219 H219	0.9299	2.5266	-2.0884 H
220 H220	2.4826	2.7380	-2.9540 H
221 C221	-0.0274	-7.0712	1.0317 C
222 H222	-0.6962	-6.8167	1.8758 H
223 O223	-0.2157	-6.5682	-0.0816 O
224 C224	1.0772	-8.0390	1.3516 C
225 H225	0.6564	-8.9828	1.7233 H
226 H226	1.6850	-8.2320	0.4651 H
227 H227	1.7109	-7.6371	2.1533 H
228 C228	0.3320	-1.0499	6.8990 C
229 H229	1.3568	-0.9901	7.3123 H
230 O230	0.0931	-1.7911	5.9391 O
231 C231	-0.6914	-0.1866	7.5821 C
232 H232	-0.3876	0.8677	7.5355 H
233 H233	-1.6693	-0.3080	7.1115 H
234 H234	-0.7584	-0.4504	8.6459 H
235 C235	-3.1076	-0.8649	-3.8054 C
236 H236	-3.8339	-0.3819	-3.1244 H
237 O237	-2.5990	-1.9496	-3.5008 O
238 C238	-2.8127	-0.1137	-5.0734 C
239 H239	-2.4178	0.8837	-4.8383 H
240 H240	-2.0897	-0.6606	-5.6824 H
241 H241	-3.7374	0.0384	-5.6459 H
242 C242	0.2346	-8.3525	2.0543 C
243 H243	1.0794	-8.0462	2.7000 H
244 O244	0.4189	-9.1537	1.1312 O
245 C245	-1.0929	-7.7325	2.3897 C
246 H246	-1.0242	-6.6381	2.3303 H
247 H247	-1.8654	-8.0895	1.7053 H
248 H248	-1.3735	-7.9768	3.4228 H
249 C249	2.8225	-5.0333	-1.1586 C
250 H250	2.4059	-4.9568	-0.1363 H
251 O251	2.1310	-4.7212	-2.1345 O
252 C252	4.2391	-5.5284	-1.2436 C
253 H253	4.3187	-6.5250	-0.7894 H
254 H254	4.5669	-5.5721	-2.2844 H
255 H255	4.9052	-4.8665	-0.6743 H
256 C256	-2.0457	-8.7514	-0.0955 C
257 H257	-2.6523	-8.8806	0.8209 H
258 O258	-1.4727	-9.7229	-0.6015 O
259 C259	-1.9874	-7.3516	-0.6398 C
260 H260	-1.5760	-6.6694	0.1160 H
261 H261	-1.3705	-7.3170	-1.5403 H
262 H262	-2.9995	-6.9943	-0.8718 H
263 C263	-1.5056	-6.4041	6.6546 C
264 H264	-2.5496	-6.0426	6.5921 H
265 O265	-1.2436	-7.4361	7.2825 O
266 C266	-0.4865	-5.5624	5.9389 C
267 H267	-0.4959	-4.5387	6.3364 H
268 H268	0.5114	-5.9912	6.0526 H
269 H269	-0.7380	-5.4906	4.8724 H
270 C270	-3.3905	-5.4348	5.4533 C
271 H271	-3.2489	-4.3373	5.4588 H
272 O272	-4.0310	-5.9816	6.3582 O
273 C273	-2.7611	-6.1617	4.2980 C
274 H274	-1.6786	-5.9779	4.2809 H
275 H275	-2.9501	-7.2347	4.3728 H
276 H276	-3.1622	-5.7815	3.3491 H
277 C277	4.2053	-4.9229	3.8527 C
278 H278	4.3765	-5.7071	3.0910 H
279 O279	4.4701	-5.1436	5.0398 O
280 C280	3.6479	-3.6276	3.3325 C
281 H281	2.6863	-3.8043	2.8322 H
282 H282	3.5116	-2.9149	4.1485 H
283 H283	4.3235	-3.2014	2.5790 H
@<TRIPOS>BOND
1 1 2 2
2 1 3 1
3 1 16 1
4 3 4 1
5 5 9 1
6 5 15 1
7 5 16 1
8 6 7 1
9 6 8 1
10 6 9 2
11 9 10 1
12 10 11 1
13 10 12 1
14 10 13 1
15 14 15 1
16 14 17 1
17 14 18 1
18 14 19 1
19 15 20 1
20 15 21 1
21 16 17 1
22 16 22 1
23 17 23 1
24 17 24 1
25 25 26 1
26 25 27 2
27 25 28 1
28 28 29 1
29 28 30 1
30 28 31 1
31 32 33 1
32 32 34 2
33 32 35 1
34 35 36 1
35 35 37 1
36 35 38 1
37 39 40 1
38 39 41 2
39 39 42 1
40 42 43 1
41 42 44 1
42 42 45 1
43 46 47 1
44 46 48 2
45 46 49 1
46 49 50 1
47 49 51 1
48 49 52 1
49 53 54 1
50 53 55 2
51 53 56 1
52 56 57 1
53 56 58 1
54 56 59 1
55 60 61 1
56 60 62 2
57 60 63 1
58 63 64 1
59 63 65 1
60 63 66 1
61 67 68 1
62 67 69 2
63 67 70 1
64 70 71 1
65 70 72 1
66 70 73 1
67 74 75 1
68 74 76 2
69 74 77 1
70 77 78 1
71 77 79 1
72 77 80 1
73 81 82 1
74 81 83 2
75 81 84 1
76 84 85 1
77 84 86 1
78 84 87 1
79 88 89 1
80 88 90 2
81 88 91 1
82 91 92 1
83 91 93 1
84 91 94 1
85 95 96 1
86 95 97 2
87 95 98 1
88 98 99 1
89 98 100 1
90 98 101 1
91 102 103 1
92 102 104 2
93 102 105 1
94 105 106 1
95 105 107 1
96 105 108 1
97 109 110 1
98 109 111 2
99 109 112 1
100 112 113 1
101 112 114 1
102 112 115 1
103 116 117 1
104 116 118 2
105 116 119 1
106 119 120 1
107 119 121 1
108 119 122 1
109 123 124 1
110 123 125 2
111 123 126 1
112 126 127 1
113 126 128 1
114 126 129 1
115 130 131 1
116 130 132 2
117 130 133 1
118 133 134 1
119 133 135 1
120 133 136 1
121 137 138 1
122 137 139 2
123 137 140 1
124 140 141 1
125 140 142 1
126 140 143 1
127 144 145 1
128 144 146 2
129 144 147 1
130 147 148 1
131 147 149 1
132 147 150 1
133 151 152 1
134 151 153 2
135 151 154 1
136 154 155 1
137 154 156 1
138 154 157 1
139 158 159 1
140 158 160 2
141 158 161 1
142 161 162 1
143 161 163 1
144 161 164 1
145 165 166 1
146 165 167 2
147 165 168 1
148 168 169 1
149 168 170 1
150 168 171 1
151 172 173 1
152 172 174 2
153 172 175 1
154 175 176 1
155 175 177 1
156 175 178 1
157 179 180 1
158 179 181 2
159 179 182 1
160 182 183 1
161 182 184 1
162 182 185 1
163 186 187 1
164 186 188 2
165 186 189 1
166 189 190 1
167 189 191 1
168 189 192 1
169 193 194 1
170 193 195 2
171 193 196 1
172 196 197 1
173 196 198 1
174 196 199 1
175 200 201 1
176 200 202 2
177 200 203 1
178 203 204 1
179 203 205 1
180 203 206 1
181 207 208 1
182 207 209 2
183 207 210 1
184 210 211 1
185 210 212 1
186 210 213 1
187 214 215 1
188 214 216 2
189 214 217 1
190 217 218 1
191 217 219 1
192 217 220 1
193 221 222 1
194 221 223 2
195 221 224 1
196 224 225 1
197 224 226 1
198 224 227 1
199 228 229 1
200 228 230 2
201 228 231 1
202 231 232 1
203 231 233 1
204 231 234 1
205 235 236 1
206 235 237 2
207 235 238 1
208 238 239 1
209 238 240 1
210 238 241 1
211 242 243 1
212 242 244 2
213 242 245 1
214 245 246 1
215 245 247 1
216 245 248 1
217 249 250 1
218 249 251 2
219 249 252 1
220 252 253 1
221 252 254 1
222 252 255 1
223 256 257 1
224 256 258 2
225 256 259 1
226 259 260 1
227 259 261 1
228 259 262 1
229 263 264 1
230 263 265 2
231 263 266 1
232 266 267 1
233 266 268 1
234 266 269 1
235 270 271 1
236 270 272 2
237 270 273 1
238 273 274 1
239 273 275 1
240 273 276 1
241 277 278 1
242 277 279 2
243 277 280 1
244 280 281 1
245 280 282 1
246 280 283 1
