@<TRIPOS>MOLECULE
Molecule Name
150 132
SMALL
NO_CHARGES

@<TRIPOS>ATOM
1 C1	0.0000	0.0000	0.0000 C
2 O2	-1.2293	0.0000	0.0000 O
3 O3	0.7314	1.1569	0.0000 O
4 H4	1.6899	0.9074	-0.0283 H
5 N5	2.2776	-1.0181	-0.1223 N
6 C6	2.1005	-1.0107	-2.5522 C
7 H7	1.0179	-1.0072	-2.5617 H
8 H8	2.5871	-0.9697	-3.5184 H
9 C9	2.8433	-1.0258	-1.4257 C
10 C10	4.3542	-0.9790	-1.4743 C
11 H11	4.8090	-1.8616	-1.0082 H
12 H12	4.6938	-0.9350	-2.5110 H
13 H13	4.7456	-0.0961	-0.9525 H
14 C14	2.0037	-1.4736	2.1884 C
15 C15	3.0541	-1.4678	1.0681 C
16 C16	0.8316	-1.2920	0.0623 C
17 C17	0.7310	-1.9564	1.4635 C
18 H18	2.2902	-2.1216	3.0213 H
19 H19	1.8606	-0.4598	2.5813 H
20 H20	3.4638	-2.4785	0.9170 H
21 H21	3.8877	-0.7896	1.2686 H
22 H22	0.4494	-1.9638	-0.7142 H
23 H23	-0.1979	-1.6881	1.9716 H
24 H24	0.7508	-3.0461	1.3491 H
25 C25	3.4580	2.4689	2.3114 C
26 H26	2.9114	2.3939	3.2707 H
27 O27	3.6116	1.4657	1.6056 O
28 C28	3.9705	3.8387	1.9652 C
29 H29	4.6497	4.1973	2.7502 H
30 H30	4.4943	3.8201	1.0071 H
31 H31	3.1374	4.5524	1.9166 H
32 C32	-1.0666	1.3589	3.2900 C
33 H33	-1.7839	1.4505	2.4524 H
34 O34	0.0448	0.8517	3.1015 O
35 C35	-1.5483	1.8837	4.6135 C
36 H36	-2.4643	1.3595	4.9168 H
37 H37	-0.7802	1.7535	5.3788 H
38 H38	-1.8060	2.9476	4.5265 H
39 C39	3.4659	2.6190	1.9330 C
40 H40	4.4844	2.6155	1.5002 H
41 O41	2.8935	1.5514	2.1792 O
42 C42	2.8739	3.9781	2.1810 C
43 H43	2.8254	4.5458	1.2422 H
44 H44	1.8726	3.8869	2.6070 H
45 H45	3.5152	4.5502	2.8645 H
46 C46	-1.5447	-3.7166	-1.6374 C
47 H47	-1.3735	-2.6619	-1.9251 H
48 O48	-0.9654	-4.1928	-0.6547 O
49 C49	-2.5014	-4.4778	-2.5117 C
50 H50	-2.1422	-4.4827	-3.5495 H
51 H51	-2.6102	-5.5045	-2.1561 H
52 H52	-3.4820	-3.9835	-2.5181 H
53 C53	-0.2723	3.9051	-0.6658 C
54 H54	0.6755	3.4278	-0.3518 H
55 O55	-0.2810	4.7046	-1.6085 O
56 C56	-1.4881	3.5084	0.1239 C
57 H57	-1.3439	3.7494	1.1856 H
58 H58	-2.3737	4.0245	-0.2527 H
59 H59	-1.6399	2.4225	0.0633 H
60 C60	1.5616	-4.0186	5.5915 C
61 H61	0.5711	-3.5388	5.7065 H
62 O62	2.2376	-3.8095	4.5779 O
63 C63	1.9862	-4.9048	6.7288 C
64 H64	1.2542	-5.7108	6.8730 H
65 H65	2.9708	-5.3341	6.5319 H
66 H66	2.0141	-4.3310	7.6646 H
67 C67	-2.1785	3.4371	1.1294 C
68 H68	-2.2359	3.1346	2.1923 H
69 O69	-1.4090	4.3402	0.7827 O
70 C70	-3.0807	2.6828	0.1933 C
71 H71	-4.1279	2.7979	0.5036 H
72 H72	-2.9590	3.0450	-0.8297 H
73 H73	-2.8543	1.6090	0.2341 H
74 C74	-5.1998	0.6222	-0.6886 C
75 H75	-5.5047	0.4272	0.3571 H
76 O76	-5.6102	1.6293	-1.2762 O
77 C77	-4.2844	-0.4032	-1.2967 C
78 H78	-4.7617	-1.3921	-1.2808 H
79 H79	-4.0360	-0.1320	-2.3249 H
80 H80	-3.3637	-0.4861	-0.7040 H
81 C81	-4.5382	1.9570	2.1698 C
82 H82	-4.4129	3.0345	1.9514 H
83 O83	-5.6600	1.5015	2.4187 O
84 C84	-3.2770	1.1400	2.1366 C
85 H85	-2.5536	1.5327	2.8636 H
86 H86	-3.4932	0.0937	2.3623 H
87 H87	-2.8049	1.2144	1.1479 H
88 C88	1.0483	4.8600	-2.1314 C
89 H89	-0.0277	4.8862	-2.3882 H
90 O90	1.8925	5.2144	-2.9620 O
91 C91	1.3702	4.3764	-0.7452 C
92 H92	0.9809	3.3599	-0.6001 H
93 H93	2.4495	4.3835	-0.5788 H
94 H94	0.8775	5.0139	0.0009 H
95 C95	0.3534	-4.0198	4.8623 C
96 H96	-0.3916	-3.2057	4.9445 H
97 O97	1.4564	-3.8009	4.3489 O
98 C98	-0.0818	-5.3513	5.4070 C
99 H99	-0.9885	-5.6927	4.8900 H
100 H100	0.7113	-6.0920	5.2850 H
101 H101	-0.3395	-5.2582	6.4704 H
102 C102	4.7574	-4.9755	2.5795 C
103 H103	4.6817	-5.7776	3.3381 H
104 O104	3.8083	-4.2053	2.3951 O
105 C105	6.0596	-4.9145	1.8314 C
106 H106	6.2418	-5.8651	1.3125 H
107 H107	6.0464	-4.0975	1.1069 H
108 H108	6.8919	-4.7720	2.5333 H
109 C109	3.2029	-5.5436	0.2524 C
110 H110	2.6539	-6.3538	0.7689 H
111 O111	2.6574	-4.4515	0.0580 O
112 C112	4.6056	-5.8805	-0.1695 C
113 H113	4.5989	-6.7454	-0.8461 H
114 H114	5.0699	-5.0274	-0.6688 H
115 H115	5.2044	-6.1670	0.7052 H
116 C116	0.2272	4.6304	-1.6521 C
117 H117	0.1940	3.8174	-2.4021 H
118 O118	0.4946	5.7855	-2.0017 O
119 C119	-0.0689	4.2172	-0.2376 C
120 H120	0.6456	3.4500	0.0891 H
121 H121	-0.0144	5.0784	0.4316 H
122 H122	-1.0681	3.7657	-0.1775 H
123 C123	-1.3982	2.7547	-1.9089 C
124 H124	-1.3936	2.0233	-1.0785 H
125 O125	-0.3384	3.0749	-2.4586 O
126 C126	-2.7490	3.2952	-2.2862 C
127 H127	-3.2133	3.7883	-1.4218 H
128 H128	-2.6596	4.0063	-3.1102 H
129 H129	-3.4163	2.4735	-2.5785 H
130 C130	7.0509	1.2072	1.2514 C
131 H131	6.9071	2.1877	1.7437 H
132 O132	6.4359	0.9389	0.2132 O
133 C133	8.0174	0.2784	1.9313 C
134 H134	7.6871	0.0760	2.9589 H
135 H135	8.0974	-0.6607	1.3797 H
136 H136	9.0066	0.7495	2.0034 H
137 C137	3.2934	4.2694	-2.4421 C
138 H138	2.3400	4.7978	-2.6328 H
139 O139	4.3655	4.8809	-2.5116 O
140 C140	3.1673	2.8096	-2.1072 C
141 H141	2.6632	2.2769	-2.9245 H
142 H142	4.1522	2.3704	-1.9351 H
143 H143	2.5439	2.6800	-1.2125 H
144 C144	-3.9391	-3.3120	1.8566 C
145 H145	-4.8226	-2.6465	1.8207 H
146 O146	-4.0817	-4.5198	2.0776 O
147 C147	-2.6148	-2.6408	1.6227 C
148 H148	-2.4535	-1.8529	2.3705 H
149 H149	-1.8026	-3.3689	1.6757 H
150 H150	-2.6080	-2.1511	0.6399 H
@<TRIPOS>BOND
1 1 2 2
2 1 3 1
3 1 16 1
4 3 4 1
5 5 9 1
6 5 15 1
7 5 16 1
8 6 7 1
9 6 8 1
10 6 9 2
11 9 10 1
12 10 11 1
13 10 12 1
14 10 13 1
15 14 15 1
16 14 17 1
17 14 18 1
18 14 19 1
19 15 20 1
20 15 21 1
21 16 17 1
22 16 22 1
23 17 23 1
24 17 24 1
25 25 26 1
26 25 27 2
27 25 28 1
28 28 29 1
29 28 30 1
30 28 31 1
31 32 33 1
32 32 34 2
33 32 35 1
34 35 36 1
35 35 37 1
36 35 38 1
37 39 40 1
38 39 41 2
39 39 42 1
40 42 43 1
41 42 44 1
42 42 45 1
43 46 47 1
44 46 48 2
45 46 49 1
46 49 50 1
47 49 51 1
48 49 52 1
49 53 54 1
50 53 55 2
51 53 56 1
52 56 57 1
53 56 58 1
54 56 59 1
55 60 61 1
56 60 62 2
57 60 63 1
58 63 64 1
59 63 65 1
60 63 66 1
61 67 68 1
62 67 69 2
63 67 70 1
64 70 71 1
65 70 72 1
66 70 73 1
67 74 75 1
68 74 76 2
69 74 77 1
70 77 78 1
71 77 79 1
72 77 80 1
73 81 82 1
74 81 83 2
75 81 84 1
76 84 85 1
77 84 86 1
78 84 87 1
79 88 89 1
80 88 90 2
81 88 91 1
82 91 92 1
83 91 93 1
84 91 94 1
85 95 96 1
86 95 97 2
87 95 98 1
88 98 99 1
89 98 100 1
90 98 101 1
91 102 103 1
92 102 104 2
93 102 105 1
94 105 106 1
95 105 107 1
96 105 108 1
97 109 110 1
98 109 111 2
99 109 112 1
100 112 113 1
101 112 114 1
102 112 115 1
103 116 117 1
104 116 118 2
105 116 119 1
106 119 120 1
107 119 121 1
108 119 122 1
109 123 124 1
110 123 125 2
111 123 126 1
112 126 127 1
113 126 128 1
114 126 129 1
115 130 131 1
116 130 132 2
117 130 133 1
118 133 134 1
119 133 135 1
120 133 136 1
121 137 138 1
122 137 139 2
123 137 140 1
124 140 141 1
125 140 142 1
126 140 143 1
127 144 145 1
128 144 146 2
129 144 147 1
130 147 148 1
131 147 149 1
132 147 150 1
