@<TRIPOS>MOLECULE
Molecule Name
206 180
SMALL
NO_CHARGES

@<TRIPOS>ATOM
1 C1	0.0000	0.0000	0.0000 C
2 O2	-1.2337	0.0000	0.0000 O
3 O3	0.7329	1.1684	0.0000 O
4 H4	0.1296	1.9426	-0.0428 H
5 N5	2.0361	-1.2121	-0.8085 N
6 C6	0.7195	-1.4272	-2.8303 C
7 H7	-0.2356	-1.4022	-2.3211 H
8 H8	0.6887	-1.5308	-3.9073 H
9 C9	1.9122	-1.3268	-2.1957 C
10 C10	3.2134	-1.3358	-2.9678 C
11 H11	3.8815	-2.1382	-2.6304 H
12 H12	3.0164	-1.4844	-4.0314 H
13 H13	3.7569	-0.3891	-2.8552 H
14 C14	2.8720	-0.7560	1.3691 C
15 C15	3.3097	-1.0439	-0.0810 C
16 C16	0.8734	-1.2499	0.0687 C
17 C17	1.4909	-1.4348	1.4825 C
18 H18	3.5879	-1.1421	2.1009 H
19 H19	2.7718	0.3226	1.5214 H
20 H20	3.9223	-1.9567	-0.1375 H
21 H21	3.9016	-0.2186	-0.4917 H
22 H22	0.2101	-2.0829	-0.1917 H
23 H23	0.8667	-1.0118	2.2749 H
24 H24	1.5987	-2.5080	1.6771 H
25 C25	-0.6995	4.5024	-2.2687 C
26 H26	-0.1083	4.4939	-3.2041 H
27 O27	-0.3590	3.7948	-1.3140 O
28 C28	-1.8968	5.4110	-2.2692 C
29 H29	-2.5828	5.1311	-3.0798 H
30 H30	-2.4185	5.3564	-1.3114 H
31 H31	-1.5850	6.4462	-2.4612 H
32 C32	0.3245	5.0201	-0.1715 C
33 H33	0.0107	4.9007	-1.2259 H
34 O34	0.0830	4.1301	0.6516 O
35 C35	1.0372	6.3041	0.1490 C
36 H36	0.3966	7.1623	-0.0942 H
37 H37	1.3090	6.3368	1.2062 H
38 H38	1.9409	6.3984	-0.4676 H
39 C39	-1.4521	4.3182	0.5259 C
40 H40	-1.6677	4.3879	-0.5573 H
41 O41	-0.3277	3.9810	0.9135 O
42 C42	-2.5995	4.6559	1.4361 C
43 H43	-3.4496	3.9904	1.2348 H
44 H44	-2.2987	4.5612	2.4816 H
45 H45	-2.9459	5.6798	1.2430 H
46 C46	1.3104	4.9400	0.3116 C
47 H47	1.6425	4.6829	1.3354 H
48 O48	0.9492	4.0487	-0.4649 O
49 C49	1.3390	6.4038	-0.0283 C
50 H50	2.3572	6.7985	0.0872 H
51 H51	0.9968	6.5651	-1.0528 H
52 H52	0.7007	6.9654	0.6667 H
53 C53	-1.0373	4.2218	-0.7453 C
54 H54	-1.5359	3.4855	-1.4040 H
55 O55	-0.8517	3.9597	0.4483 O
56 C56	-0.6276	5.5076	-1.4072 C
57 H57	-1.5055	6.0063	-1.8392 H
58 H58	-0.1456	6.1717	-0.6867 H
59 H59	0.0607	5.3020	-2.2377 H
60 C60	-2.5668	-2.8682	1.1397 C
61 H61	-2.7061	-2.8853	2.2374 H
62 O62	-1.5344	-3.3277	0.6389 O
63 C63	-3.6965	-2.2630	0.3544 C
64 H64	-3.8642	-1.2254	0.6727 H
65 H65	-3.4752	-2.2878	-0.7147 H
66 H66	-4.6284	-2.8094	0.5512 H
67 C67	-0.5750	3.7465	2.7772 C
68 H68	0.0387	4.6403	2.9986 H
69 O69	-0.1264	2.8504	2.0534 O
70 C70	-1.9387	3.7265	3.4089 C
71 H71	-2.5178	4.6016	3.0849 H
72 H72	-2.4720	2.8127	3.1383 H
73 H73	-1.8497	3.7922	4.5014 H
74 C74	-1.7187	-4.4146	0.0877 C
75 H75	-1.9810	-4.2116	-0.9680 H
76 O76	-0.6007	-4.1101	0.5181 O
77 C77	-2.7978	-5.0638	0.9082 C
78 H78	-3.0877	-6.0233	0.4595 H
79 H79	-2.4542	-5.2262	1.9319 H
80 H80	-3.6969	-4.4333	0.9163 H
81 C81	-4.9466	0.9824	1.9596 C
82 H82	-5.6658	0.7719	1.1454 H
83 O83	-5.2271	0.6857	3.1263 O
84 C84	-3.6597	1.6313	1.5331 C
85 H85	-3.8663	2.5868	1.0327 H
86 H86	-3.0129	1.8015	2.3964 H
87 H87	-3.1408	0.9967	0.8025 H
88 C88	-1.7886	-2.5890	2.5498 C
89 H89	-1.3521	-1.5769	2.4514 H
90 O90	-1.2411	-3.5555	2.0075 O
91 C91	-3.0485	-2.6728	3.3652 C
92 H92	-3.8243	-2.0298	2.9285 H
93 H93	-3.4075	-3.7031	3.4093 H
94 H94	-2.8652	-2.3019	4.3824 H
95 C95	-1.0510	0.7624	4.6488 C
96 H96	-1.9124	1.3386	4.2607 H
97 O97	-0.3665	0.0779	3.8801 O
98 C98	-0.8046	0.8850	6.1264 C
99 H99	-1.6900	0.5541	6.6856 H
100 H100	0.0602	0.2866	6.4207 H
101 H101	-0.6349	1.9361	6.3950 H
102 C102	6.3630	-1.4492	3.7548 C
103 H103	6.0047	-0.8384	4.6052 H
104 O104	5.5525	-1.9571	2.9717 O
105 C105	7.8550	-1.5955	3.6477 C
106 H106	8.2563	-2.0522	4.5623 H
107 H107	8.1179	-2.2106	2.7845 H
108 H108	8.3255	-0.6077	3.5541 H
109 C109	6.3383	1.6816	-1.9479 C
110 H110	6.5551	1.5908	-0.8665 H
111 O111	5.2538	1.2942	-2.3972 O
112 C112	7.4336	2.2907	-2.7775 C
113 H113	8.3529	1.6974	-2.6834 H
114 H114	7.1353	2.3414	-3.8268 H
115 H115	7.6684	3.2990	-2.4114 H
116 C116	-2.6830	3.3799	-2.2068 C
117 H117	-3.6374	3.1471	-2.7162 H
118 O118	-1.7377	3.8527	-2.8479 O
119 C119	-2.6470	3.0814	-0.7342 C
120 H120	-2.8524	2.0168	-0.5596 H
121 H121	-1.6724	3.3407	-0.3153 H
122 H122	-3.4336	3.6451	-0.2153 H
123 C123	-3.6361	-4.1395	-1.8771 C
124 H124	-3.9208	-3.9379	-2.9273 H
125 O125	-3.9903	-5.1897	-1.3297 O
126 C126	-2.8182	-3.0680	-1.2122 C
127 H127	-3.3659	-2.1162	-1.2190 H
128 H128	-2.5836	-3.3492	-0.1834 H
129 H129	-1.8875	-2.9021	-1.7709 H
130 C130	4.1677	-0.2473	-6.7788 C
131 H131	5.1310	0.0905	-6.3516 H
132 O132	3.5431	-1.1710	-6.2451 O
133 C133	3.7132	0.4872	-8.0088 C
134 H134	4.4660	0.3956	-8.8031 H
135 H135	2.7585	0.0902	-8.3603 H
136 H136	3.6100	1.5588	-7.7921 H
137 C137	-3.1808	-1.6985	3.0924 C
138 H138	-4.0023	-1.3443	2.4411 H
139 O139	-3.2845	-1.6153	4.3214 O
140 C140	-1.9858	-2.2626	2.3762 C
141 H141	-1.5584	-1.5079	1.7025 H
142 H142	-1.2281	-2.5861	3.0930 H
143 H143	-2.2876	-3.1123	1.7494 H
144 C144	6.2978	-2.9882	-1.8790 C
145 H145	6.0982	-1.9169	-2.0716 H
146 O146	5.3728	-3.7432	-1.5592 O
147 C147	7.7299	-3.4169	-2.0356 C
148 H148	8.3724	-2.8434	-1.3542 H
149 H149	7.8344	-4.4839	-1.8277 H
150 H150	8.0786	-3.2035	-3.0548 H
151 C151	1.9759	-3.3135	-6.2601 C
152 H152	1.4406	-4.1559	-5.7822 H
153 O153	3.0648	-2.9372	-5.8120 O
154 C154	1.2873	-2.7005	-7.4471 C
155 H155	0.2958	-2.3275	-7.1574 H
156 H156	1.8834	-1.8808	-7.8537 H
157 H157	1.1257	-3.4599	-8.2236 H
158 C158	-3.4837	0.2745	-4.2143 C
159 H159	-3.9172	-0.1560	-3.2917 H
160 O160	-4.1645	0.3475	-5.2434 O
161 C161	-2.0587	0.7393	-4.1028 C
162 H162	-1.4114	-0.0960	-3.8037 H
163 H163	-1.7142	1.1478	-5.0552 H
164 H164	-1.9711	1.5041	-3.3198 H
165 C165	0.0184	-5.6085	-4.8648 C
166 H166	-0.9268	-5.8998	-4.3685 H
167 O167	0.9811	-6.3839	-4.8682 O
168 C168	0.0204	-4.2477	-5.5029 C
169 H169	-0.1975	-3.4777	-4.7508 H
170 H170	0.9880	-4.0444	-5.9667 H
171 H171	-0.7724	-4.1845	-6.2600 H
172 C172	-3.6742	-3.9037	-2.5369 C
173 H173	-4.1900	-2.9751	-2.2268 H
174 O174	-4.3150	-4.8253	-3.0547 O
175 C175	-2.1934	-3.9364	-2.2815 C
176 H176	-1.9919	-3.7999	-1.2106 H
177 H177	-1.7685	-4.8848	-2.6170 H
178 H178	-1.7015	-3.1058	-2.8049 H
179 C179	2.0927	3.3174	-3.9350 C
180 H180	1.0692	3.3263	-4.3555 H
181 O181	2.5645	4.3426	-3.4307 O
182 C182	2.8190	2.0049	-4.0304 C
183 H183	2.9010	1.6942	-5.0805 H
184 H184	3.8162	2.0872	-3.5930 H
185 H185	2.2518	1.2209	-3.5114 H
186 C186	-0.7191	-4.9583	-1.0826 C
187 H187	-1.7315	-4.5468	-0.9084 H
188 O188	0.2676	-4.2148	-1.0411 O
189 C189	-0.6606	-6.4342	-1.3607 C
190 H190	-1.2619	-6.6754	-2.2474 H
191 H191	0.3719	-6.7526	-1.5195 H
192 H192	-1.0946	-6.9940	-0.5216 H
193 C193	-2.5327	-4.6251	1.9525 C
194 H194	-3.3460	-4.8603	1.2399 H
195 O195	-2.6601	-4.9000	3.1509 O
196 C196	-1.3184	-3.9719	1.3544 C
197 H197	-1.5989	-3.0295	0.8654 H
198 H198	-0.5702	-3.7768	2.1256 H
199 H199	-0.8874	-4.6164	0.5767 H
200 C200	1.6576	2.0974	-5.8171 C
201 H201	2.4931	1.5504	-6.2938 H
202 O202	1.0084	2.9252	-6.4662 O
203 C203	1.3999	1.7553	-4.3764 C
204 H204	2.2973	1.9529	-3.7750 H
205 H205	0.5623	2.3391	-3.9887 H
206 H206	1.1808	0.6839	-4.2761 H
@<TRIPOS>BOND
1 1 2 2
2 1 3 1
3 1 16 1
4 3 4 1
5 5 9 1
6 5 15 1
7 5 16 1
8 6 7 1
9 6 8 1
10 6 9 2
11 9 10 1
12 10 11 1
13 10 12 1
14 10 13 1
15 14 15 1
16 14 17 1
17 14 18 1
18 14 19 1
19 15 20 1
20 15 21 1
21 16 17 1
22 16 22 1
23 17 23 1
24 17 24 1
25 25 26 1
26 25 27 2
27 25 28 1
28 28 29 1
29 28 30 1
30 28 31 1
31 32 33 1
32 32 34 2
33 32 35 1
34 35 36 1
35 35 37 1
36 35 38 1
37 39 40 1
38 39 41 2
39 39 42 1
40 42 43 1
41 42 44 1
42 42 45 1
43 46 47 1
44 46 48 2
45 46 49 1
46 49 50 1
47 49 51 1
48 49 52 1
49 53 54 1
50 53 55 2
51 53 56 1
52 56 57 1
53 56 58 1
54 56 59 1
55 60 61 1
56 60 62 2
57 60 63 1
58 63 64 1
59 63 65 1
60 63 66 1
61 67 68 1
62 67 69 2
63 67 70 1
64 70 71 1
65 70 72 1
66 70 73 1
67 74 75 1
68 74 76 2
69 74 77 1
70 77 78 1
71 77 79 1
72 77 80 1
73 81 82 1
74 81 83 2
75 81 84 1
76 84 85 1
77 84 86 1
78 84 87 1
79 88 89 1
80 88 90 2
81 88 91 1
82 91 92 1
83 91 93 1
84 91 94 1
85 95 96 1
86 95 97 2
87 95 98 1
88 98 99 1
89 98 100 1
90 98 101 1
91 102 103 1
92 102 104 2
93 102 105 1
94 105 106 1
95 105 107 1
96 105 108 1
97 109 110 1
98 109 111 2
99 109 112 1
100 112 113 1
101 112 114 1
102 112 115 1
103 116 117 1
104 116 118 2
105 116 119 1
106 119 120 1
107 119 121 1
108 119 122 1
109 123 124 1
110 123 125 2
111 123 126 1
112 126 127 1
113 126 128 1
114 126 129 1
115 130 131 1
116 130 132 2
117 130 133 1
118 133 134 1
119 133 135 1
120 133 136 1
121 137 138 1
122 137 139 2
123 137 140 1
124 140 141 1
125 140 142 1
126 140 143 1
127 144 145 1
128 144 146 2
129 144 147 1
130 147 148 1
131 147 149 1
132 147 150 1
133 151 152 1
134 151 153 2
135 151 154 1
136 154 155 1
137 154 156 1
138 154 157 1
139 158 159 1
140 158 160 2
141 158 161 1
142 161 162 1
143 161 163 1
144 161 164 1
145 165 166 1
146 165 167 2
147 165 168 1
148 168 169 1
149 168 170 1
150 168 171 1
151 172 173 1
152 172 174 2
153 172 175 1
154 175 176 1
155 175 177 1
156 175 178 1
157 179 180 1
158 179 181 2
159 179 182 1
160 182 183 1
161 182 184 1
162 182 185 1
163 186 187 1
164 186 188 2
165 186 189 1
166 189 190 1
167 189 191 1
168 189 192 1
169 193 194 1
170 193 195 2
171 193 196 1
172 196 197 1
173 196 198 1
174 196 199 1
175 200 201 1
176 200 202 2
177 200 203 1
178 203 204 1
179 203 205 1
180 203 206 1
