@<TRIPOS>MOLECULE
Molecule Name
80 72
SMALL
NO_CHARGES

@<TRIPOS>ATOM
1 C1	0.0000	0.0000	0.0000 C
2 O2	-1.2281	0.0000	0.0000 O
3 O3	0.7297	1.1614	0.0000 O
4 H4	1.6858	0.9286	-0.0953 H
5 N5	2.2198	-1.0761	-0.3871 N
6 C6	1.4702	-0.9736	-2.7013 C
7 H7	0.4189	-1.0543	-2.4558 H
8 H8	1.7074	-0.8412	-3.7493 H
9 C9	2.4612	-0.9972	-1.7855 C
10 C10	3.9133	-0.8607	-2.1874 C
11 H11	4.4788	-1.7871	-2.0251 H
12 H12	3.9863	-0.6133	-3.2485 H
13 H13	4.4140	-0.0690	-1.6161 H
14 C14	2.3608	-2.4576	1.5708 C
15 C15	3.2171	-1.6819	0.5504 C
16 C16	0.8395	-1.2761	0.1022 C
17 C17	1.0243	-1.6926	1.5851 C
18 H18	2.2018	-3.4852	1.2229 H
19 H19	2.8309	-2.5059	2.5574 H
20 H20	3.9084	-2.3410	0.0193 H
21 H21	3.8091	-0.8979	1.0392 H
22 H22	0.3188	-2.0631	-0.4593 H
23 H23	1.1011	-0.7985	2.2161 H
24 H24	0.1800	-2.2857	1.9425 H
25 C25	-3.6187	1.4169	-1.6007 C
26 H26	-3.2050	0.9430	-0.6903 H
27 O27	-4.7979	1.7869	-1.6256 O
28 C28	-2.6580	1.5610	-2.7476 C
29 H29	-2.2744	0.5759	-3.0448 H
30 H30	-3.1485	2.0363	-3.5997 H
31 H31	-1.7902	2.1595	-2.4402 H
32 C32	3.2894	-5.6279	-1.0266 C
33 H33	3.1594	-5.9617	-2.0737 H
34 O34	3.6876	-4.4827	-0.7862 O
35 C35	2.9525	-6.6491	0.0235 C
36 H36	3.5745	-7.5446	-0.1073 H
37 H37	3.1089	-6.2361	1.0223 H
38 H38	1.9079	-6.9704	-0.0836 H
39 C39	6.5715	0.8723	1.8084 C
40 H40	6.3811	1.4295	2.7453 H
41 O41	5.6256	0.5057	1.1022 O
42 C42	8.0183	0.6163	1.4917 C
43 H43	8.4877	0.0466	2.3048 H
44 H44	8.1125	0.0637	0.5545 H
45 H45	8.5623	1.5671	1.4159 H
46 C46	-1.9805	-4.5016	2.2344 C
47 H47	-2.7522	-3.7403	2.0121 H
48 O48	-0.8237	-4.3488	1.8264 O
49 C49	-2.4493	-5.6808	3.0398 C
50 H50	-3.2658	-6.1953	2.5159 H
51 H51	-1.6264	-6.3779	3.2115 H
52 H52	-2.8540	-5.3431	4.0032 H
53 C53	5.7963	-4.5158	-2.2269 C
54 H54	5.6125	-5.3386	-2.9436 H
55 O55	4.8541	-4.0163	-1.6017 O
56 C56	7.2298	-4.0843	-2.0924 C
57 H57	7.6178	-3.7548	-3.0655 H
58 H58	7.3182	-3.2720	-1.3679 H
59 H59	7.8510	-4.9320	-1.7741 H
60 C60	-3.9626	2.8961	1.8407 C
61 H61	-3.9064	2.4945	2.8703 H
62 O62	-5.0156	3.3935	1.4261 O
63 C63	-2.6993	2.7850	1.0340 C
64 H64	-2.3951	1.7330	0.9518 H
65 H65	-2.8448	3.2041	0.0361 H
66 H66	-1.8803	3.3130	1.5403 H
67 C67	6.7453	2.3466	-0.7712 C
68 H68	7.7952	2.0089	-0.8626 H
69 O69	5.8282	1.5182	-0.7418 O
70 C70	6.5499	3.8346	-0.6902 C
71 H71	6.9662	4.3193	-1.5835 H
72 H72	5.4887	4.0766	-0.6022 H
73 H73	7.0939	4.2404	0.1730 H
74 C74	-2.6486	1.7001	-3.3482 C
75 H75	-1.7934	2.3117	-3.0031 H
76 O76	-3.0085	1.7488	-4.5298 O
77 C77	-3.2990	0.8465	-2.2958 C
78 H78	-3.6655	1.4751	-1.4732 H
79 H79	-4.1291	0.2797	-2.7226 H
80 H80	-2.5638	0.1552	-1.8629 H
@<TRIPOS>BOND
1 1 2 2
2 1 3 1
3 1 16 1
4 3 4 1
5 5 9 1
6 5 15 1
7 5 16 1
8 6 7 1
9 6 8 1
10 6 9 2
11 9 10 1
12 10 11 1
13 10 12 1
14 10 13 1
15 14 15 1
16 14 17 1
17 14 18 1
18 14 19 1
19 15 20 1
20 15 21 1
21 16 17 1
22 16 22 1
23 17 23 1
24 17 24 1
25 25 26 1
26 25 27 2
27 25 28 1
28 28 29 1
29 28 30 1
30 28 31 1
31 32 33 1
32 32 34 2
33 32 35 1
34 35 36 1
35 35 37 1
36 35 38 1
37 39 40 1
38 39 41 2
39 39 42 1
40 42 43 1
41 42 44 1
42 42 45 1
43 46 47 1
44 46 48 2
45 46 49 1
46 49 50 1
47 49 51 1
48 49 52 1
49 53 54 1
50 53 55 2
51 53 56 1
52 56 57 1
53 56 58 1
54 56 59 1
55 60 61 1
56 60 62 2
57 60 63 1
58 63 64 1
59 63 65 1
60 63 66 1
61 67 68 1
62 67 69 2
63 67 70 1
64 70 71 1
65 70 72 1
66 70 73 1
67 74 75 1
68 74 76 2
69 74 77 1
70 77 78 1
71 77 79 1
72 77 80 1
