@<TRIPOS>MOLECULE
Molecule Name
129 114
SMALL
NO_CHARGES

@<TRIPOS>ATOM
1 C1	0.0000	0.0000	0.0000 C
2 O2	-1.2301	0.0000	0.0000 O
3 O3	0.6891	1.1844	0.0000 O
4 H4	1.6729	1.0834	-0.0443 H
5 N5	2.0209	-1.2116	0.8656 N
6 C6	3.4101	-0.0122	-0.7253 C
7 H7	2.6951	-0.0467	-1.5392 H
8 H8	4.3643	0.4456	-0.9488 H
9 C9	3.2134	-0.6098	0.4850 C
10 C10	4.3083	-0.6053	1.5299 C
11 H11	4.5965	-1.6261	1.8092 H
12 H12	5.1946	-0.0982	1.1450 H
13 H13	3.9912	-0.0923	2.4457 H
14 C14	0.3623	-2.4334	2.0593 C
15 C15	1.8408	-2.0013	2.1085 C
16 C16	0.8404	-1.2995	-0.0174 C
17 C17	0.0431	-2.4876	0.5506 C
18 H18	0.1976	-3.3897	2.5634 H
19 H19	-0.2714	-1.6829	2.5452 H
20 H20	2.5078	-2.8758	2.1117 H
21 H21	2.0654	-1.4032	2.9978 H
22 H22	1.1541	-1.4854	-1.0545 H
23 H23	-1.0213	-2.3870	0.3340 H
24 H24	0.4110	-3.4209	0.1099 H
25 C25	-1.5093	-1.8186	-2.8744 C
26 H26	-2.3794	-2.4673	-2.6580 H
27 O27	-0.3652	-2.2107	-2.6188 O
28 C28	-1.8347	-0.4815	-3.4789 C
29 H29	-2.4979	0.0837	-2.8104 H
30 H30	-0.9213	0.0893	-3.6584 H
31 H31	-2.3775	-0.6164	-4.4239 H
32 C32	-4.3144	0.5605	-0.1120 C
33 H33	-3.5079	-0.0907	0.2754 H
34 O34	-5.4950	0.2058	-0.0208 O
35 C35	-3.8603	1.8536	-0.7292 C
36 H36	-3.1793	1.6533	-1.5671 H
37 H37	-4.7176	2.4303	-1.0827 H
38 H38	-3.2953	2.4441	0.0042 H
39 C39	-0.7367	-1.9850	-3.3641 C
40 H40	-1.1426	-2.6369	-2.5674 H
41 O41	0.1751	-1.1900	-3.1098 O
42 C42	-1.3682	-2.1498	-4.7181 C
43 H43	-2.4464	-1.9503	-4.6586 H
44 H44	-0.9085	-1.4710	-5.4395 H
45 H45	-1.2563	-3.1862	-5.0632 H
46 C46	1.1310	-2.5486	-4.0317 C
47 H47	0.5238	-3.4058	-3.6839 H
48 O48	1.7988	-1.8937	-3.2235 O
49 C49	1.0698	-2.2699	-5.5074 C
50 H50	0.0331	-2.0731	-5.8117 H
51 H51	1.6959	-1.4117	-5.7606 H
52 H52	1.4042	-3.1502	-6.0721 H
53 C53	1.9080	-0.9147	-4.7662 C
54 H54	2.4345	-1.5895	-5.4676 H
55 O55	2.1235	-0.9929	-3.5515 O
56 C56	0.9529	0.0579	-5.3994 C
57 H57	0.1817	-0.4833	-5.9637 H
58 H58	0.4804	0.6810	-4.6371 H
59 H59	1.4842	0.6944	-6.1193 H
60 C60	1.0430	0.8034	-4.0818 C
61 H61	0.6870	0.6833	-5.1227 H
62 O62	0.5152	0.1594	-3.1682 O
63 C63	2.1734	1.7759	-3.8938 C
64 H64	1.8773	2.7722	-4.2485 H
65 H65	2.4592	1.8309	-2.8412 H
66 H66	3.0392	1.4695	-4.4958 H
67 C67	4.6879	-3.8710	4.5969 C
68 H68	5.3508	-4.7570	4.6003 H
69 O69	4.2149	-3.4551	3.5332 O
70 C70	4.4299	-3.2518	5.9419 C
71 H71	5.3772	-2.9418	6.4028 H
72 H72	3.7690	-2.3879	5.8446 H
73 H73	3.9758	-3.9898	6.6164 H
74 C74	-4.6855	2.7191	-0.0095 C
75 H75	-4.6209	3.0263	1.0517 H
76 O76	-5.7196	2.9286	-0.6534 O
77 C77	-3.4570	2.0557	-0.5660 C
78 H78	-3.2185	1.1547	0.0149 H
79 H79	-3.6087	1.7875	-1.6137 H
80 H80	-2.5926	2.7273	-0.4782 H
81 C81	-0.4695	-6.8292	2.3562 C
82 H82	0.0668	-7.6179	2.9173 H
83 O83	-0.0466	-5.6677	2.3623 O
84 C84	-1.7004	-7.2821	1.6220 C
85 H85	-2.4201	-7.7206	2.3261 H
86 H86	-2.1636	-6.4430	1.0985 H
87 H87	-1.4420	-8.0694	0.9015 H
88 C88	-0.1559	-4.9569	5.5495 C
89 H89	-1.2469	-4.8176	5.6718 H
90 O90	0.4007	-4.6034	4.5039 O
91 C91	0.5501	-5.5857	6.7180 C
92 H92	0.1222	-6.5747	6.9300 H
93 H93	1.6179	-5.6844	6.5114 H
94 H94	0.4033	-4.9770	7.6200 H
95 C95	1.0739	1.4849	3.5997 C
96 H96	2.1395	1.7121	3.4064 H
97 O97	0.6303	0.3537	3.3725 O
98 C98	0.2573	2.6262	4.1380 C
99 H99	0.2831	3.4721	3.4381 H
100 H100	-0.7768	2.3140	4.2985 H
101 H101	0.6858	2.9840	5.0836 H
102 C102	4.5052	2.8021	4.3386 C
103 H103	3.7167	3.1672	5.0238 H
104 O104	4.4331	1.6642	3.8611 O
105 C105	5.6175	3.7731	4.0576 C
106 H106	6.1139	4.0599	4.9943 H
107 H107	6.3472	3.3317	3.3756 H
108 H108	5.2123	4.6946	3.6187 H
109 C109	3.7078	-4.6087	4.4672 C
110 H110	4.6918	-4.1072	4.3982 H
111 O111	2.9719	-4.6686	3.4757 O
112 C112	3.3677	-5.1818	5.8144 C
113 H113	3.3782	-4.3899	6.5751 H
114 H114	2.3839	-5.6554	5.7910 H
115 H115	4.1250	-5.9185	6.1134 H
116 C116	-1.8305	-4.8249	4.3444 C
117 H117	-2.7032	-4.4748	3.7610 H
118 O118	-0.7685	-5.0919	3.7709 O
119 C119	-2.0483	-4.9393	5.8271 C
120 H120	-2.8729	-5.6342	6.0351 H
121 H121	-1.1396	-5.2896	6.3211 H
122 H122	-2.3420	-3.9659	6.2418 H
123 C123	-5.0355	-2.0321	1.6491 C
124 H124	-5.6543	-1.3519	1.0335 H
125 O125	-5.5408	-3.0383	2.1592 O
126 C126	-3.5934	-1.6360	1.7988 C
127 H127	-3.5209	-0.6382	2.2518 H
128 H128	-3.0603	-2.3601	2.4185 H
129 H129	-3.1152	-1.5715	0.8123 H
@<TRIPOS>BOND
1 1 2 2
2 1 3 1
3 1 16 1
4 3 4 1
5 5 9 1
6 5 15 1
7 5 16 1
8 6 7 1
9 6 8 1
10 6 9 2
11 9 10 1
12 10 11 1
13 10 12 1
14 10 13 1
15 14 15 1
16 14 17 1
17 14 18 1
18 14 19 1
19 15 20 1
20 15 21 1
21 16 17 1
22 16 22 1
23 17 23 1
24 17 24 1
25 25 26 1
26 25 27 2
27 25 28 1
28 28 29 1
29 28 30 1
30 28 31 1
31 32 33 1
32 32 34 2
33 32 35 1
34 35 36 1
35 35 37 1
36 35 38 1
37 39 40 1
38 39 41 2
39 39 42 1
40 42 43 1
41 42 44 1
42 42 45 1
43 46 47 1
44 46 48 2
45 46 49 1
46 49 50 1
47 49 51 1
48 49 52 1
49 53 54 1
50 53 55 2
51 53 56 1
52 56 57 1
53 56 58 1
54 56 59 1
55 60 61 1
56 60 62 2
57 60 63 1
58 63 64 1
59 63 65 1
60 63 66 1
61 67 68 1
62 67 69 2
63 67 70 1
64 70 71 1
65 70 72 1
66 70 73 1
67 74 75 1
68 74 76 2
69 74 77 1
70 77 78 1
71 77 79 1
72 77 80 1
73 81 82 1
74 81 83 2
75 81 84 1
76 84 85 1
77 84 86 1
78 84 87 1
79 88 89 1
80 88 90 2
81 88 91 1
82 91 92 1
83 91 93 1
84 91 94 1
85 95 96 1
86 95 97 2
87 95 98 1
88 98 99 1
89 98 100 1
90 98 101 1
91 102 103 1
92 102 104 2
93 102 105 1
94 105 106 1
95 105 107 1
96 105 108 1
97 109 110 1
98 109 111 2
99 109 112 1
100 112 113 1
101 112 114 1
102 112 115 1
103 116 117 1
104 116 118 2
105 116 119 1
106 119 120 1
107 119 121 1
108 119 122 1
109 123 124 1
110 123 125 2
111 123 126 1
112 126 127 1
113 126 128 1
114 126 129 1
