@<TRIPOS>MOLECULE
Molecule Name
38 36
SMALL
NO_CHARGES

@<TRIPOS>ATOM
1 C1	0.0000	0.0000	0.0000 C
2 O2	-1.2246	0.0000	0.0000 O
3 O3	0.6881	1.2055	0.0000 O
4 H4	1.6588	1.0929	0.0557 H
5 N5	0.3558	-2.3607	0.7055 N
6 C6	1.0256	-1.3436	2.7970 C
7 H7	1.3523	-0.4154	2.3448 H
8 H8	1.1199	-1.4104	3.8728 H
9 C9	0.4813	-2.3674	2.0966 C
10 C10	-0.0226	-3.6124	2.7917 C
11 H11	0.4582	-4.5189	2.4030 H
12 H12	0.1810	-3.5524	3.8626 H
13 H13	-1.1053	-3.7341	2.6626 H
14 C14	-0.3899	-2.7806	-1.5086 C
15 C15	-0.3284	-3.3966	-0.0970 C
16 C16	0.8713	-1.2663	-0.0994 C
17 C17	0.8242	-1.8287	-1.5478 C
18 H18	-0.3527	-3.5394	-2.2955 H
19 H19	-1.3137	-2.2059	-1.6225 H
20 H20	0.2410	-4.3382	-0.0960 H
21 H21	-1.3298	-3.6077	0.2923 H
22 H22	1.9010	-1.0275	0.2077 H
23 H23	0.7292	-1.0444	-2.3047 H
24 H24	1.7500	-2.3819	-1.7438 H
25 C25	3.3855	2.1716	1.7103 C
26 H26	2.5827	2.9167	1.5521 H
27 O27	3.8053	1.5017	0.7601 O
28 C28	3.8920	2.0573	3.1208 C
29 H29	3.0688	1.7905	3.7971 H
30 H30	4.6786	1.3026	3.1845 H
31 H31	4.2811	3.0258	3.4620 H
32 C32	3.6776	0.7833	2.7007 C
33 H33	3.2807	0.3327	3.6302 H
34 O34	3.4170	0.2742	1.6048 O
35 C35	4.5221	2.0124	2.8880 C
36 H36	5.3851	1.7838	3.5275 H
37 H37	4.8696	2.3882	1.9232 H
38 H38	3.9448	2.7925	3.4017 H
@<TRIPOS>BOND
1 1 2 2
2 1 3 1
3 1 16 1
4 3 4 1
5 5 9 1
6 5 15 1
7 5 16 1
8 6 7 1
9 6 8 1
10 6 9 2
11 9 10 1
12 10 11 1
13 10 12 1
14 10 13 1
15 14 15 1
16 14 17 1
17 14 18 1
18 14 19 1
19 15 20 1
20 15 21 1
21 16 17 1
22 16 22 1
23 17 23 1
24 17 24 1
25 25 26 1
26 25 27 2
27 25 28 1
28 28 29 1
29 28 30 1
30 28 31 1
31 32 33 1
32 32 34 2
33 32 35 1
34 35 36 1
35 35 37 1
36 35 38 1
