@<TRIPOS>MOLECULE
Molecule Name
276 240
SMALL
NO_CHARGES

@<TRIPOS>ATOM
1 C1	0.0000	0.0000	0.0000 C
2 O2	-1.2320	0.0000	0.0000 O
3 O3	0.7390	1.1677	0.0000 O
4 H4	0.1439	1.9494	0.0084 H
5 N5	0.3714	-2.3475	0.6857 N
6 C6	0.9223	-1.3693	2.8311 C
7 H7	1.3055	-0.4466	2.4129 H
8 H8	0.9484	-1.4572	3.9095 H
9 C9	0.4166	-2.3781	2.0818 C
10 C10	-0.1368	-3.6308	2.7243 C
11 H11	0.3680	-4.5332	2.3570 H
12 H12	-0.0052	-3.5860	3.8072 H
13 H13	-1.2085	-3.7491	2.5201 H
14 C14	-0.2231	-2.7506	-1.5787 C
15 C15	-0.2468	-3.3802	-0.1708 C
16 C16	0.9075	-1.2255	-0.0708 C
17 C17	0.9662	-1.7685	-1.5251 C
18 H18	-0.1121	-3.5015	-2.3665 H
19 H19	-1.1530	-2.2012	-1.7566 H
20 H20	0.3318	-4.3158	-0.1430 H
21 H21	-1.2695	-3.6091	0.1482 H
22 H22	1.8978	-0.9358	0.2950 H
23 H23	0.9066	-0.9754	-2.2759 H
24 H24	1.9171	-2.2953	-1.6639 H
25 C25	-2.5492	3.4439	-0.3078 C
26 H26	-2.4217	3.5466	0.7866 H
27 O27	-1.6188	3.0208	-1.0031 O
28 C28	-3.8947	3.8478	-0.8422 C
29 H29	-4.1007	4.8972	-0.5923 H
30 H30	-3.9315	3.7144	-1.9255 H
31 H31	-4.6841	3.2486	-0.3695 H
32 C32	-1.2619	3.2292	1.8618 C
33 H33	-1.8103	2.2935	1.6425 H
34 O34	-0.7231	3.8610	0.9461 O
35 C35	-1.2354	3.6389	3.3077 C
36 H36	-0.7765	2.8480	3.9159 H
37 H37	-0.6759	4.5685	3.4315 H
38 H38	-2.2594	3.7719	3.6812 H
39 C39	-0.2562	5.1720	-0.5968 C
40 H40	-0.1237	5.1142	-1.6939 H
41 O41	-0.5085	4.1503	0.0516 O
42 C42	-0.1075	6.5432	0.0007 C
43 H43	-0.8368	7.2313	-0.4472 H
44 H44	-0.2533	6.5067	1.0823 H
45 H45	0.8886	6.9470	-0.2241 H
46 C46	-0.8739	4.0516	1.4043 C
47 H47	-0.7591	3.1158	1.9836 H
48 O48	-0.8240	4.0261	0.1694 O
49 C49	-1.0859	5.2953	2.2212 C
50 H50	-0.2419	5.4446	2.9077 H
51 H51	-1.1889	6.1667	1.5711 H
52 H52	-1.9851	5.1902	2.8426 H
53 C53	-0.2109	4.9242	0.2181 C
54 H54	-0.2058	4.5706	1.2666 H
55 O55	-0.0145	4.1267	-0.7058 O
56 C56	-0.4668	6.3936	0.0330 C
57 H57	0.2945	6.9794	0.5653 H
58 H58	-0.4543	6.6532	-1.0277 H
59 H59	-1.4375	6.6656	0.4682 H
60 C60	-0.8373	4.4337	2.0013 C
61 H61	-1.8570	4.8418	1.8661 H
62 O62	-0.2214	3.9717	1.0343 O
63 C63	-0.2988	4.4917	3.4034 C
64 H64	-0.9588	3.9381	4.0845 H
65 H65	0.7077	4.0701	3.4441 H
66 H66	-0.2782	5.5311	3.7572 H
67 C67	0.9667	4.1352	1.8514 C
68 H68	2.0161	4.0118	1.5227 H
69 O69	0.0435	4.0023	1.0402 O
70 C70	0.7796	4.4634	3.3062 C
71 H71	1.3049	5.3956	3.5535 H
72 H72	-0.2818	4.5667	3.5413 H
73 H73	1.2211	3.6756	3.9308 H
74 C74	-2.0759	3.2214	0.8812 C
75 H75	-1.6459	3.7315	1.7640 H
76 O76	-1.6026	3.4234	-0.2428 O
77 C77	-3.2328	2.3047	1.1644 C
78 H78	-4.0493	2.8634	1.6412 H
79 H79	-3.5923	1.8461	0.2408 H
80 H80	-2.9295	1.5214	1.8717 H
81 C81	1.9882	4.6679	-0.3714 C
82 H82	2.2084	4.5146	-1.4449 H
83 O83	1.0629	4.0489	0.1660 O
84 C84	2.8770	5.6517	0.3365 C
85 H85	2.8125	6.6353	-0.1478 H
86 H86	2.5896	5.7400	1.3863 H
87 H87	3.9252	5.3321	0.2663 H
88 C88	-2.8407	2.4887	0.3177 C
89 H89	-2.9430	2.1371	-0.7266 H
90 O90	-2.2481	3.5460	0.5604 O
91 C91	-3.4603	1.6023	1.3615 C
92 H92	-3.0169	0.5986	1.3161 H
93 H93	-3.3125	2.0242	2.3579 H
94 H94	-4.5344	1.4833	1.1666 H
95 C95	-1.1860	2.5186	-2.5740 C
96 H96	-0.1704	2.1672	-2.8379 H
97 O97	-1.4596	2.7988	-1.4015 O
98 C98	-2.1535	2.6180	-3.7200 C
99 H99	-2.2684	1.6385	-4.2031 H
100 H100	-3.1258	2.9710	-3.3699 H
101 H101	-1.7647	3.3044	-4.4839 H
102 C102	-0.8025	3.6560	1.7883 C
103 H103	0.2179	3.2441	1.9052 H
104 O104	-1.3376	3.6790	0.6742 O
105 C105	-1.4444	4.1599	3.0504 C
106 H106	-0.8282	4.9515	3.4974 H
107 H107	-2.4445	4.5464	2.8428 H
108 H108	-1.5075	3.3514	3.7908 H
109 C109	-0.8631	3.9715	-2.5619 C
110 H110	-1.1041	4.9153	-2.0367 H
111 O111	-0.6219	2.9463	-1.9148 O
112 C112	-0.8573	4.0508	-4.0628 C
113 H113	-0.1279	4.8000	-4.3985 H
114 H114	-0.6111	3.0790	-4.4959 H
115 H115	-1.8396	4.3792	-4.4274 H
116 C116	-2.8054	2.2402	-0.0638 C
117 H117	-2.6368	2.4781	1.0037 H
118 O118	-1.9118	2.4451	-0.8931 O
119 C119	-4.1574	1.6722	-0.3935 C
120 H120	-4.9457	2.3753	-0.0932 H
121 H121	-4.2357	1.4681	-1.4634 H
122 H122	-4.3261	0.7464	0.1723 H
123 C123	-0.5684	2.6486	-2.9611 C
124 H124	-1.5813	2.2073	-2.8978 H
125 O125	-0.0378	3.1293	-1.9534 O
126 C126	0.0694	2.6098	-4.3215 C
127 H127	-0.5586	3.1424	-5.0482 H
128 H128	1.0620	3.0641	-4.2915 H
129 H129	0.1488	1.5721	-4.6718 H
130 C130	-1.1839	3.2504	-2.5345 C
131 H131	-2.0233	3.6094	-1.9092 H
132 O132	-0.0874	3.0058	-2.0189 O
133 C133	-1.4886	3.0959	-3.9982 C
134 H134	-1.8145	4.0563	-4.4194 H
135 H135	-0.6080	2.7389	-4.5364 H
136 H136	-2.3183	2.3904	-4.1388 H
137 C137	-0.0300	3.0157	-2.7675 C
138 H138	0.5091	3.0720	-3.7322 H
139 O139	0.5143	3.4085	-1.7295 O
140 C140	-1.4186	2.4444	-2.8357 C
141 H141	-1.3882	1.4262	-3.2461 H
142 H142	-1.8739	2.4267	-1.8432 H
143 H143	-2.0397	3.0419	-3.5162 H
144 C144	1.1158	2.8075	-2.8250 C
145 H145	2.1348	2.9647	-2.4231 H
146 O146	0.1338	2.9093	-2.0811 O
147 C147	1.0428	2.4750	-4.2889 C
148 H148	1.6144	1.5607	-4.4974 H
149 H149	0.0046	2.3374	-4.5984 H
150 H150	1.5014	3.2775	-4.8817 H
151 C151	-5.1822	1.0342	-1.4368 C
152 H152	-4.7025	1.7227	-2.1582 H
153 O153	-6.2857	1.3125	-0.9543 O
154 C154	-4.4030	-0.2102	-1.1153 C
155 H155	-3.4213	0.0555	-0.7009 H
156 H156	-4.9486	-0.8285	-0.3992 H
157 H157	-4.2150	-0.7854	-2.0316 H
158 C158	-4.3154	-4.5750	1.1940 C
159 H159	-4.9759	-3.6952	1.0743 H
160 O160	-3.1099	-4.4189	1.4185 O
161 C161	-4.9899	-5.9118	1.0640 C
162 H162	-5.4664	-6.0001	0.0785 H
163 H163	-4.2667	-6.7194	1.1958 H
164 H164	-5.7886	-6.0060	1.8117 H
165 C165	-3.8652	-4.1362	3.3174 C
166 H166	-3.2263	-3.7177	4.1182 H
167 O167	-3.4260	-4.2436	2.1669 O
168 C168	-5.2493	-4.5414	3.7405 C
169 H169	-5.7840	-3.6784	4.1593 H
170 H170	-5.8069	-4.9417	2.8911 H
171 H171	-5.1951	-5.2969	4.5355 H
172 C172	2.2369	4.0587	-1.7394 C
173 H173	2.9407	3.3890	-2.2692 H
174 O174	1.4669	3.6001	-0.8880 O
175 C175	2.3027	5.5076	-2.1339 C
176 H176	2.1016	5.6159	-3.2081 H
177 H177	1.5777	6.0923	-1.5639 H
178 H178	3.3130	5.9008	-1.9594 H
179 C179	4.2748	-3.3044	-3.3208 C
180 H180	4.0786	-2.3461	-3.8382 H
181 O181	3.4314	-3.7767	-2.5503 O
182 C182	5.5989	-3.9456	-3.6284 C
183 H183	6.4188	-3.2645	-3.3639 H
184 H184	5.7075	-4.8821	-3.0773 H
185 H185	5.6832	-4.1395	-4.7060 H
186 C186	3.3430	-5.1717	-0.9591 C
187 H187	2.6039	-5.9944	-0.9974 H
188 O188	3.2171	-4.1905	-1.7003 O
189 C189	4.4593	-5.3517	0.0311 C
190 H190	5.0155	-6.2724	-0.1901 H
191 H191	5.1381	-4.4967	0.0015 H
192 H192	4.0510	-5.4639	1.0443 H
193 C193	-3.9879	-0.5415	1.9306 C
194 H194	-3.9392	0.5638	1.9068 H
195 O195	-4.9206	-1.1328	1.3752 O
196 C196	-2.8675	-1.2219	2.6661 C
197 H197	-2.8379	-0.8795	3.7092 H
198 H198	-2.9954	-2.3061	2.6391 H
199 H199	-1.9025	-0.9527	2.2167 H
200 C200	-0.5148	-2.5224	6.8532 C
201 H201	-1.6143	-2.4809	6.9707 H
202 O202	-0.0036	-3.3525	6.0931 O
203 C203	0.2600	-1.5230	7.6655 C
204 H204	0.0463	-1.6580	8.7342 H
205 H205	1.3318	-1.6350	7.4884 H
206 H206	-0.0522	-0.5026	7.4064 H
207 C207	0.3299	-2.6853	7.1519 C
208 H208	0.2191	-3.3412	8.0363 H
209 O209	-0.0665	-3.0657	6.0446 O
210 C210	0.9763	-1.3536	7.4122 C
211 H211	1.9805	-1.4971	7.8330 H
212 H212	1.0446	-0.7748	6.4886 H
213 H213	0.3976	-0.7922	8.1577 H
214 C214	-3.5615	-3.6661	0.3247 C
215 H215	-3.4229	-4.0718	-0.6955 H
216 O216	-3.4659	-4.4113	1.3063 O
217 C217	-3.8623	-2.1954	0.3998 C
218 H218	-4.7775	-1.9680	-0.1630 H
219 H219	-3.9831	-1.8825	1.4390 H
220 H220	-3.0519	-1.6200	-0.0672 H
221 C221	-4.3886	2.4324	1.9448 C
222 H222	-3.8817	2.7001	2.8913 H
223 O223	-5.6221	2.3653	1.8998 O
224 C224	-3.4796	2.1711	0.7766 C
225 H225	-2.7874	1.3518	1.0127 H
226 H226	-4.0619	1.9154	-0.1111 H
227 H227	-2.8640	3.0570	0.5717 H
228 C228	-3.2264	4.4035	0.5301 C
229 H229	-3.7955	4.4078	-0.4190 H
230 O230	-3.5597	5.1517	1.4559 O
231 C231	-2.0670	3.4485	0.5840 C
232 H232	-1.3520	3.6771	-0.2177 H
233 H233	-1.5653	3.5106	1.5520 H
234 H234	-2.4158	2.4212	0.4141 H
235 C235	-5.3472	0.6030	1.3570 C
236 H236	-6.0120	-0.0956	0.8141 H
237 O237	-5.8089	1.6337	1.8593 O
238 C238	-3.9009	0.1993	1.4223 C
239 H239	-3.4930	0.0908	0.4084 H
240 H240	-3.3211	0.9425	1.9737 H
241 H241	-3.8038	-0.7801	1.9093 H
242 C242	3.8812	1.0763	1.6711 C
243 H243	3.2728	0.8317	2.5626 H
244 O244	3.6350	0.5376	0.5861 O
245 C245	4.9810	2.0762	1.8939 C
246 H246	5.6732	1.7108	2.6642 H
247 H247	5.5270	2.2570	0.9656 H
248 H248	4.5627	3.0209	2.2661 H
249 C249	-2.5530	0.9955	3.6008 C
250 H250	-2.2911	0.7969	4.6574 H
251 O251	-2.8352	2.1428	3.2374 O
252 C252	-2.5341	-0.2031	2.6941 C
253 H253	-3.2351	-0.9649	3.0607 H
254 H254	-2.8035	0.0838	1.6755 H
255 H255	-1.5369	-0.6627	2.6967 H
256 C256	2.1914	-3.6226	6.5136 C
257 H257	2.3880	-4.6820	6.7657 H
258 O258	1.4832	-3.3381	5.5412 O
259 C259	2.8356	-2.6122	7.4209 C
260 H260	3.9257	-2.7451	7.4204 H
261 H261	2.5893	-1.5979	7.0996 H
262 H262	2.4984	-2.7639	8.4548 H
263 C263	-1.6238	1.7757	-3.0872 C
264 H264	-1.3045	1.9456	-2.0414 H
265 O265	-1.7113	2.7276	-3.8709 O
266 C266	-1.9261	0.3479	-3.4466 C
267 H267	-2.7231	-0.0435	-2.8003 H
268 H268	-2.2318	0.2734	-4.4923 H
269 H269	-1.0418	-0.2800	-3.2749 H
270 C270	6.1531	-1.8467	-0.4752 C
271 H271	6.5098	-1.1244	0.2835 H
272 O272	6.8709	-2.1391	-1.4382 O
273 C273	4.7806	-2.4105	-0.2356 C
274 H274	4.0415	-1.5995	-0.1923 H
275 H275	4.5112	-3.1108	-1.0291 H
276 H276	4.7469	-2.9222	0.7354 H
@<TRIPOS>BOND
1 1 2 2
2 1 3 1
3 1 16 1
4 3 4 1
5 5 9 1
6 5 15 1
7 5 16 1
8 6 7 1
9 6 8 1
10 6 9 2
11 9 10 1
12 10 11 1
13 10 12 1
14 10 13 1
15 14 15 1
16 14 17 1
17 14 18 1
18 14 19 1
19 15 20 1
20 15 21 1
21 16 17 1
22 16 22 1
23 17 23 1
24 17 24 1
25 25 26 1
26 25 27 2
27 25 28 1
28 28 29 1
29 28 30 1
30 28 31 1
31 32 33 1
32 32 34 2
33 32 35 1
34 35 36 1
35 35 37 1
36 35 38 1
37 39 40 1
38 39 41 2
39 39 42 1
40 42 43 1
41 42 44 1
42 42 45 1
43 46 47 1
44 46 48 2
45 46 49 1
46 49 50 1
47 49 51 1
48 49 52 1
49 53 54 1
50 53 55 2
51 53 56 1
52 56 57 1
53 56 58 1
54 56 59 1
55 60 61 1
56 60 62 2
57 60 63 1
58 63 64 1
59 63 65 1
60 63 66 1
61 67 68 1
62 67 69 2
63 67 70 1
64 70 71 1
65 70 72 1
66 70 73 1
67 74 75 1
68 74 76 2
69 74 77 1
70 77 78 1
71 77 79 1
72 77 80 1
73 81 82 1
74 81 83 2
75 81 84 1
76 84 85 1
77 84 86 1
78 84 87 1
79 88 89 1
80 88 90 2
81 88 91 1
82 91 92 1
83 91 93 1
84 91 94 1
85 95 96 1
86 95 97 2
87 95 98 1
88 98 99 1
89 98 100 1
90 98 101 1
91 102 103 1
92 102 104 2
93 102 105 1
94 105 106 1
95 105 107 1
96 105 108 1
97 109 110 1
98 109 111 2
99 109 112 1
100 112 113 1
101 112 114 1
102 112 115 1
103 116 117 1
104 116 118 2
105 116 119 1
106 119 120 1
107 119 121 1
108 119 122 1
109 123 124 1
110 123 125 2
111 123 126 1
112 126 127 1
113 126 128 1
114 126 129 1
115 130 131 1
116 130 132 2
117 130 133 1
118 133 134 1
119 133 135 1
120 133 136 1
121 137 138 1
122 137 139 2
123 137 140 1
124 140 141 1
125 140 142 1
126 140 143 1
127 144 145 1
128 144 146 2
129 144 147 1
130 147 148 1
131 147 149 1
132 147 150 1
133 151 152 1
134 151 153 2
135 151 154 1
136 154 155 1
137 154 156 1
138 154 157 1
139 158 159 1
140 158 160 2
141 158 161 1
142 161 162 1
143 161 163 1
144 161 164 1
145 165 166 1
146 165 167 2
147 165 168 1
148 168 169 1
149 168 170 1
150 168 171 1
151 172 173 1
152 172 174 2
153 172 175 1
154 175 176 1
155 175 177 1
156 175 178 1
157 179 180 1
158 179 181 2
159 179 182 1
160 182 183 1
161 182 184 1
162 182 185 1
163 186 187 1
164 186 188 2
165 186 189 1
166 189 190 1
167 189 191 1
168 189 192 1
169 193 194 1
170 193 195 2
171 193 196 1
172 196 197 1
173 196 198 1
174 196 199 1
175 200 201 1
176 200 202 2
177 200 203 1
178 203 204 1
179 203 205 1
180 203 206 1
181 207 208 1
182 207 209 2
183 207 210 1
184 210 211 1
185 210 212 1
186 210 213 1
187 214 215 1
188 214 216 2
189 214 217 1
190 217 218 1
191 217 219 1
192 217 220 1
193 221 222 1
194 221 223 2
195 221 224 1
196 224 225 1
197 224 226 1
198 224 227 1
199 228 229 1
200 228 230 2
201 228 231 1
202 231 232 1
203 231 233 1
204 231 234 1
205 235 236 1
206 235 237 2
207 235 238 1
208 238 239 1
209 238 240 1
210 238 241 1
211 242 243 1
212 242 244 2
213 242 245 1
214 245 246 1
215 245 247 1
216 245 248 1
217 249 250 1
218 249 251 2
219 249 252 1
220 252 253 1
221 252 254 1
222 252 255 1
223 256 257 1
224 256 258 2
225 256 259 1
226 259 260 1
227 259 261 1
228 259 262 1
229 263 264 1
230 263 265 2
231 263 266 1
232 266 267 1
233 266 268 1
234 266 269 1
235 270 271 1
236 270 272 2
237 270 273 1
238 273 274 1
239 273 275 1
240 273 276 1
