@<TRIPOS>MOLECULE
Molecule Name
157 138
SMALL
NO_CHARGES

@<TRIPOS>ATOM
1 C1	0.0000	0.0000	0.0000 C
2 O2	-1.2352	0.0000	0.0000 O
3 O3	0.7399	1.1583	0.0000 O
4 H4	0.1638	1.9547	-0.0136 H
5 N5	0.3618	-2.3516	0.6968 N
6 C6	0.6236	-1.2327	2.8274 C
7 H7	1.0417	-0.3277	2.4033 H
8 H8	0.5098	-1.2549	3.9040 H
9 C9	0.2486	-2.3067	2.0853 C
10 C10	-0.3264	-3.5428	2.7432 C
11 H11	0.3266	-4.4148	2.6123 H
12 H12	-0.4488	-3.3745	3.8150 H
13 H13	-1.3053	-3.8042	2.3235 H
14 C14	0.9635	-3.2876	-1.3828 C
15 C15	0.0625	-3.5197	-0.1590 C
16 C16	0.9004	-1.2272	-0.0650 C
17 C17	0.9789	-1.7521	-1.5343 C
18 H18	1.9734	-3.6610	-1.1787 H
19 H19	0.5887	-3.7882	-2.2798 H
20 H20	0.2965	-4.4545	0.3543 H
21 H21	-0.9988	-3.5459	-0.4478 H
22 H22	1.8907	-0.9373	0.3079 H
23 H23	0.0972	-1.4225	-2.0955 H
24 H24	1.8674	-1.3764	-2.0462 H
25 C25	-1.3330	3.6669	2.0195 C
26 H26	-1.6023	4.6146	2.5235 H
27 O27	-1.1670	3.6419	0.7948 O
28 C28	-1.1952	2.4721	2.9209 C
29 H29	-2.1365	2.2937	3.4578 H
30 H30	-0.9290	1.5852	2.3420 H
31 H31	-0.4268	2.6603	3.6824 H
32 C32	-1.7554	4.3319	-0.6077 C
33 H33	-1.8617	4.3529	0.4936 H
34 O34	-0.8315	3.6974	-1.1292 O
35 C35	-2.7902	5.1096	-1.3716 C
36 H36	-2.7701	6.1647	-1.0675 H
37 H37	-2.6094	5.0337	-2.4459 H
38 H38	-3.7945	4.7318	-1.1387 H
39 C39	0.3532	3.7430	2.0898 C
40 H40	1.3816	3.3496	1.9799 H
41 O41	-0.3602	3.8999	1.0926 O
42 C42	-0.0730	4.0530	3.4974 C
43 H43	0.6035	4.7952	3.9420 H
44 H44	-1.0964	4.4340	3.5119 H
45 H45	-0.0063	3.1506	4.1196 H
46 C46	-1.2090	3.6901	1.7795 C
47 H47	-2.0865	3.2529	1.2661 H
48 O48	-0.1678	3.9082	1.1500 O
49 C49	-1.3944	3.9792	3.2428 C
50 H50	-1.6538	3.0571	3.7799 H
51 H51	-0.4832	4.4068	3.6664 H
52 H52	-2.2308	4.6759	3.3870 H
53 C53	-0.4464	4.4155	1.5912 C
54 H54	0.1851	4.2554	2.4857 H
55 O55	0.0103	4.1984	0.4632 O
56 C56	-1.8432	4.8984	1.8646 C
57 H57	-1.8135	5.8506	2.4109 H
58 H58	-2.3925	5.0286	0.9297 H
59 H59	-2.3718	4.1812	2.5064 H
60 C60	1.9598	3.4734	1.4263 C
61 H61	2.6497	3.1094	0.6413 H
62 O62	0.8177	3.8393	1.1265 O
63 C63	2.5158	3.4802	2.8226 C
64 H64	3.4144	4.1100	2.8681 H
65 H65	1.7707	3.8523	3.5290 H
66 H66	2.8243	2.4666	3.1112 H
67 C67	-3.0743	-1.3265	-2.4059 C
68 H68	-3.6114	-1.9619	-1.6763 H
69 O69	-2.0242	-1.7264	-2.9210 O
70 C70	-3.7114	0.0034	-2.6967 C
71 H71	-3.8060	0.5872	-1.7714 H
72 H72	-3.1172	0.5612	-3.4236 H
73 H73	-4.7282	-0.1420	-3.0850 H
74 C74	-0.2995	4.9051	1.1274 C
75 H75	0.6784	5.2980	0.7898 H
76 O76	-0.4371	3.6980	1.3552 O
77 C77	-1.3906	5.9282	1.2754 C
78 H78	-1.5628	6.4377	0.3179 H
79 H79	-2.3157	5.4547	1.6108 H
80 H80	-1.0890	6.7004	1.9955 H
81 C81	-0.8051	4.3759	-1.2510 C
82 H82	-0.3736	4.1973	-2.2542 H
83 O83	-0.1085	4.2255	-0.2409 O
84 C84	-2.2476	4.7979	-1.2339 C
85 H85	-2.8701	4.0346	-1.7196 H
86 H86	-2.5889	4.9515	-0.2080 H
87 H87	-2.3767	5.7247	-1.8085 H
88 C88	-0.4716	3.0950	-2.6980 C
89 H89	-1.0719	2.5685	-3.4642 H
90 O90	-0.9259	3.2597	-1.5603 O
91 C91	0.8817	3.5677	-3.1499 C
92 H92	0.7774	4.2525	-4.0020 H
93 H93	1.4020	4.0737	-2.3339 H
94 H94	1.4817	2.7167	-3.4988 H
95 C95	-0.3435	3.0250	-3.2154 C
96 H96	-0.2666	4.1163	-3.3823 H
97 O97	-0.5991	2.5870	-2.0882 O
98 C98	-0.1186	2.1683	-4.4298 C
99 H99	0.8790	2.3595	-4.8472 H
100 H100	-0.2131	1.1108	-4.1743 H
101 H101	-0.8443	2.4253	-5.2128 H
102 C102	2.1521	-7.1132	2.4287 C
103 H103	3.1054	-6.6077	2.6740 H
104 O104	1.1935	-6.4569	2.0063 O
105 C105	2.1343	-8.6001	2.6470 C
106 H106	2.3584	-8.8303	3.6972 H
107 H107	1.1595	-9.0140	2.3804 H
108 H108	2.9164	-9.0797	2.0437 H
109 C109	4.6939	-1.7980	1.3118 C
110 H110	4.4521	-2.7477	1.8258 H
111 O111	4.1197	-1.4998	0.2585 O
112 C112	5.7353	-0.9471	1.9828 C
113 H113	6.6749	-1.5072	2.0806 H
114 H114	5.9102	-0.0340	1.4099 H
115 H115	5.4133	-0.6884	3.0003 H
116 C116	-3.6915	0.9813	2.7849 C
117 H117	-3.6856	-0.1090	2.5960 H
118 O118	-3.9600	1.4136	3.9115 O
119 C119	-3.3585	1.8442	1.6002 C
120 H120	-4.0694	1.6561	0.7844 H
121 H121	-3.3876	2.9003	1.8762 H
122 H122	-2.3615	1.5902	1.2164 H
123 C123	1.0870	-7.4391	-0.0718 C
124 H124	1.9073	-6.9582	-0.6379 H
125 O125	0.2657	-6.7456	0.5386 O
126 C126	1.0673	-8.9414	-0.1134 C
127 H127	2.0093	-9.3425	0.2838 H
128 H128	0.2288	-9.3290	0.4690 H
129 H129	0.9876	-9.2893	-1.1518 H
130 C130	2.5094	-7.0216	0.6894 C
131 H131	3.2010	-7.0446	1.5530 H
132 O132	2.0424	-5.9461	0.2979 O
133 C133	2.2066	-8.3564	0.0684 C
134 H134	1.7645	-9.0289	0.8157 H
135 H135	1.5197	-8.2398	-0.7725 H
136 H136	3.1346	-8.8318	-0.2761 H
137 C137	-4.1276	0.4507	-3.2651 C
138 H138	-4.9458	0.4961	-2.5214 H
139 O139	-4.2597	0.9971	-4.3660 O
140 C140	-2.9007	-0.3012	-2.8308 C
141 H141	-3.1626	-1.3374	-2.5784 H
142 H142	-2.1484	-0.2951	-3.6224 H
143 H143	-2.4832	0.1507	-1.9212 H
144 C144	-2.7755	2.7117	1.2819 C
145 H145	-2.6139	2.5540	0.1986 H
146 O146	-2.9362	3.8546	1.7246 O
147 C147	-2.7809	1.4657	2.1225 C
148 H148	-1.8264	0.9335	2.0147 H
149 H149	-2.9463	1.7140	3.1730 H
150 H150	-3.5665	0.7806	1.7770 H
151 C151	0.7748	-5.6112	-5.0492 C
152 H152	-0.2836	-5.7201	-5.3532 H
153 O153	1.0600	-5.3819	-3.8685 O
154 C154	1.7831	-5.7613	-6.1537 C
155 H155	1.5966	-5.0165	-6.9389 H
156 H156	2.7965	-5.6396	-5.7654 H
157 H157	1.6840	-6.7488	-6.6238 H
@<TRIPOS>BOND
1 1 2 2
2 1 3 1
3 1 16 1
4 3 4 1
5 5 9 1
6 5 15 1
7 5 16 1
8 6 7 1
9 6 8 1
10 6 9 2
11 9 10 1
12 10 11 1
13 10 12 1
14 10 13 1
15 14 15 1
16 14 17 1
17 14 18 1
18 14 19 1
19 15 20 1
20 15 21 1
21 16 17 1
22 16 22 1
23 17 23 1
24 17 24 1
25 25 26 1
26 25 27 2
27 25 28 1
28 28 29 1
29 28 30 1
30 28 31 1
31 32 33 1
32 32 34 2
33 32 35 1
34 35 36 1
35 35 37 1
36 35 38 1
37 39 40 1
38 39 41 2
39 39 42 1
40 42 43 1
41 42 44 1
42 42 45 1
43 46 47 1
44 46 48 2
45 46 49 1
46 49 50 1
47 49 51 1
48 49 52 1
49 53 54 1
50 53 55 2
51 53 56 1
52 56 57 1
53 56 58 1
54 56 59 1
55 60 61 1
56 60 62 2
57 60 63 1
58 63 64 1
59 63 65 1
60 63 66 1
61 67 68 1
62 67 69 2
63 67 70 1
64 70 71 1
65 70 72 1
66 70 73 1
67 74 75 1
68 74 76 2
69 74 77 1
70 77 78 1
71 77 79 1
72 77 80 1
73 81 82 1
74 81 83 2
75 81 84 1
76 84 85 1
77 84 86 1
78 84 87 1
79 88 89 1
80 88 90 2
81 88 91 1
82 91 92 1
83 91 93 1
84 91 94 1
85 95 96 1
86 95 97 2
87 95 98 1
88 98 99 1
89 98 100 1
90 98 101 1
91 102 103 1
92 102 104 2
93 102 105 1
94 105 106 1
95 105 107 1
96 105 108 1
97 109 110 1
98 109 111 2
99 109 112 1
100 112 113 1
101 112 114 1
102 112 115 1
103 116 117 1
104 116 118 2
105 116 119 1
106 119 120 1
107 119 121 1
108 119 122 1
109 123 124 1
110 123 125 2
111 123 126 1
112 126 127 1
113 126 128 1
114 126 129 1
115 130 131 1
116 130 132 2
117 130 133 1
118 133 134 1
119 133 135 1
120 133 136 1
121 137 138 1
122 137 139 2
123 137 140 1
124 140 141 1
125 140 142 1
126 140 143 1
127 144 145 1
128 144 146 2
129 144 147 1
130 147 148 1
131 147 149 1
132 147 150 1
133 151 152 1
134 151 153 2
135 151 154 1
136 154 155 1
137 154 156 1
138 154 157 1
