@<TRIPOS>MOLECULE
Molecule Name
164 144
SMALL
NO_CHARGES

@<TRIPOS>ATOM
1 C1	0.0000	0.0000	0.0000 C
2 O2	-1.2332	0.0000	0.0000 O
3 O3	0.7374	1.1654	0.0000 O
4 H4	0.1401	1.9432	-0.0498 H
5 N5	2.0217	-1.2089	-0.8451 N
6 C6	0.6402	-1.2006	-2.8342 C
7 H7	-0.2982	-1.2451	-2.2967 H
8 H8	0.5756	-1.1894	-3.9147 H
9 C9	3.1256	-1.0946	-3.0472 C
10 H10	3.7565	-1.9800	-2.8947 H
11 H11	2.8838	-1.0353	-4.1103 H
12 H12	3.7265	-0.2143	-2.7864 H
13 C13	2.9928	-1.7597	1.2196 C
14 C14	3.2999	-1.0830	-0.1264 C
15 C15	0.8816	-1.2421	0.0679 C
16 C16	1.5208	-1.3745	1.4894 C
17 H17	3.0916	-2.8465	1.1176 H
18 H18	3.6613	-1.4292	2.0203 H
19 H19	4.1057	-1.5849	-0.6669 H
20 H20	3.5865	-0.0290	0.0175 H
21 H21	0.2239	-2.0882	-0.1654 H
22 H22	1.4754	-0.4122	2.0097 H
23 H23	0.9896	-2.1113	2.0972 H
24 C24	1.8530	-1.1651	-2.2317 C
25 C25	1.1195	4.5958	-1.7203 C
26 H26	0.6647	4.1890	-2.6435 H
27 O27	1.1121	3.9286	-0.6798 O
28 C28	1.7175	5.9691	-1.8456 C
29 H29	0.9514	6.6864	-2.1689 H
30 H30	2.1415	6.2899	-0.8918 H
31 H31	2.4993	5.9715	-2.6166 H
32 C32	-1.8369	2.8579	2.4899 C
33 H33	-2.6425	3.5582	2.7817 H
34 O34	-1.5639	2.6902	1.2960 O
35 C35	-1.1405	2.1642	3.6269 C
36 H36	-1.8652	1.5903	4.2198 H
37 H37	-0.3641	1.4957	3.2489 H
38 H38	-0.6930	2.9044	4.3035 H
39 C39	-2.2617	-2.1698	1.7450 C
40 H40	-2.7392	-1.4135	1.0934 H
41 O41	-1.3566	-2.8862	1.3027 O
42 C42	-2.7919	-2.2399	3.1496 C
43 H43	-3.8676	-2.4610	3.1365 H
44 H44	-2.2660	-3.0092	3.7189 H
45 H45	-2.6743	-1.2678	3.6466 H
46 C46	-4.8824	-1.8551	0.5339 C
47 H47	-5.3019	-1.3534	-0.3587 H
48 O48	-5.5303	-1.8921	1.5859 O
49 C49	-3.5171	-2.4576	0.3545 C
50 H50	-2.7989	-1.6828	0.0547 H
51 H51	-3.1828	-2.9295	1.2808 H
52 H52	-3.5359	-3.2017	-0.4529 H
53 C53	-3.5187	2.1588	-0.4903 C
54 H54	-3.1862	1.2139	-0.0200 H
55 O55	-3.7072	3.1639	0.2042 O
56 C56	-3.7101	2.1066	-1.9801 C
57 H57	-4.4534	1.3406	-2.2387 H
58 H58	-4.0371	3.0777	-2.3578 H
59 H59	-2.7719	1.8163	-2.4714 H
60 C60	-3.8293	2.9653	0.7908 C
61 H61	-4.0378	3.4091	-0.2013 H
62 O62	-3.5014	3.6897	1.7372 O
63 C63	-3.9754	1.4717	0.8740 C
64 H64	-3.3004	0.9857	0.1569 H
65 H65	-3.7519	1.1214	1.8839 H
66 H66	-4.9965	1.1762	0.5984 H
67 C67	-4.4213	1.2793	2.7707 C
68 H68	-4.9139	1.9174	2.0126 H
69 O69	-4.5098	1.5620	3.9708 O
70 C70	-3.6714	0.0945	2.2293 C
71 H71	-2.8897	0.4281	1.5339 H
72 H72	-3.2195	-0.4764	3.0432 H
73 H73	-4.3497	-0.5522	1.6570 H
74 C74	5.3908	-4.4107	-1.8332 C
75 H75	6.0133	-3.8855	-2.5822 H
76 O76	4.7519	-3.7643	-0.9953 O
77 C77	5.3955	-5.9108	-1.9266 C
78 H78	6.4194	-6.2927	-1.8173 H
79 H79	4.7577	-6.3440	-1.1532 H
80 H80	5.0428	-6.2286	-2.9167 H
81 C81	3.2871	-5.3039	-1.1799 C
82 H82	3.0218	-5.3712	-2.2521 H
83 O83	3.5569	-4.2079	-0.6758 O
84 C84	3.2881	-6.6073	-0.4315 C
85 H85	3.9965	-7.3076	-0.8939 H
86 H86	3.5595	-6.4476	0.6142 H
87 H87	2.2966	-7.0760	-0.4881 H
88 C88	-1.8944	-4.2853	-1.0846 C
89 H89	-2.2064	-3.8289	-2.0433 H
90 O90	-0.7475	-4.1091	-0.6586 O
91 C91	-2.9459	-5.0994	-0.3842 C
92 H92	-3.2847	-5.9176	-1.0337 H
93 H93	-2.5533	-5.5097	0.5486 H
94 H94	-3.8260	-4.4778	-0.1725 H
95 C95	0.5525	-5.3547	0.8990 C
96 H96	0.9757	-5.8686	0.0150 H
97 O97	0.9680	-4.2367	1.2238 O
98 C98	-0.5224	-6.1081	1.6312 C
99 H99	-0.1361	-7.0762	1.9772 H
100 H100	-0.8809	-5.5295	2.4851 H
101 H101	-1.3596	-6.3246	0.9544 H
102 C102	2.4378	-5.9779	1.8396 C
103 H103	2.0014	-6.3358	0.8878 H
104 O104	2.3785	-4.7795	2.1367 O
105 C105	3.0781	-7.0352	2.6948 C
106 H106	3.8842	-7.5330	2.1394 H
107 H107	3.4802	-6.5951	3.6098 H
108 H108	2.3434	-7.8104	2.9500 H
109 C109	-5.4092	0.4931	1.3371 C
110 H110	-5.4013	0.1815	2.3989 H
111 O111	-6.2370	1.3210	0.9404 O
112 C112	-4.3693	-0.1540	0.4660 C
113 H113	-4.4902	-1.2454	0.4809 H
114 H114	-4.4498	0.2103	-0.5604 H
115 H115	-3.3649	0.0588	0.8555 H
116 C116	-2.5009	3.0344	-1.3168 C
117 H117	-2.3955	2.2144	-0.5812 H
118 O118	-3.4755	3.7930	-1.2639 O
119 C119	-1.4008	3.1334	-2.3361 C
120 H120	-1.3295	2.1978	-2.9067 H
121 H121	-1.5853	3.9661	-3.0181 H
122 H122	-0.4336	3.2736	-1.8354 H
123 C123	-3.5353	-1.4491	0.9451 C
124 H124	-2.4505	-1.6267	1.0725 H
125 O125	-4.2204	-2.2426	0.2901 O
126 C126	-4.0701	-0.2124	1.6111 C
127 H127	-3.5523	0.6769	1.2277 H
128 H128	-5.1436	-0.1169	1.4343 H
129 H129	-3.8759	-0.2512	2.6912 H
130 C130	4.8529	-5.3316	2.3341 C
131 H131	5.4228	-5.4063	1.3884 H
132 O132	3.8810	-4.5719	2.4136 O
133 C133	5.3484	-6.1987	3.4573 C
134 H134	6.3927	-5.9527	3.6918 H
135 H135	4.7303	-6.0619	4.3472 H
136 H136	5.3317	-7.2543	3.1550 H
137 C137	-5.1823	0.2338	-0.4740 C
138 H138	-5.7889	0.1677	0.4492 H
139 O139	-5.4189	1.1136	-1.3093 O
140 C140	-4.0969	-0.7972	-0.6090 C
141 H141	-4.5291	-1.8064	-0.5806 H
142 H142	-3.5514	-0.6576	-1.5447 H
143 H143	-3.4014	-0.7264	0.2378 H
144 C144	5.3113	1.2267	2.8291 C
145 H145	4.9853	0.8322	3.8103 H
146 O146	4.7335	0.8719	1.7955 O
147 C147	6.4664	2.1875	2.8704 C
148 H148	7.3408	1.7072	3.3296 H
149 H149	6.7196	2.5245	1.8630 H
150 H150	6.2150	3.0534	3.4971 H
151 C151	0.2914	-2.7336	-7.0717 C
152 H152	-0.3366	-1.8405	-7.2522 H
153 O153	1.2884	-2.9421	-7.7721 O
154 C154	-0.1608	-3.6252	-5.9494 C
155 H155	-1.1812	-3.9837	-6.1397 H
156 H156	0.5137	-4.4774	-5.8427 H
157 H157	-0.1937	-3.0604	-5.0083 H
158 C158	5.4766	1.7255	-3.1710 C
159 H159	4.9094	1.4291	-4.0738 H
160 O160	4.9842	1.5632	-2.0488 O
161 C161	6.8354	2.3149	-3.4262 C
162 H162	6.7466	3.2094	-4.0571 H
163 H163	7.3215	2.5771	-2.4841 H
164 H164	7.4600	1.5993	-3.9771 H
@<TRIPOS>BOND
1 1 2 2
2 1 3 1
3 1 15 1
4 3 4 1
5 5 14 1
6 5 15 1
7 5 24 1
8 6 7 1
9 6 8 1
10 6 24 2
11 9 10 1
12 9 11 1
13 9 12 1
14 9 24 1
15 13 14 1
16 13 16 1
17 13 17 1
18 13 18 1
19 14 19 1
20 14 20 1
21 15 16 1
22 15 21 1
23 16 22 1
24 16 23 1
25 25 26 1
26 25 27 2
27 25 28 1
28 28 29 1
29 28 30 1
30 28 31 1
31 32 33 1
32 32 34 2
33 32 35 1
34 35 36 1
35 35 37 1
36 35 38 1
37 39 40 1
38 39 41 2
39 39 42 1
40 42 43 1
41 42 44 1
42 42 45 1
43 46 47 1
44 46 48 2
45 46 49 1
46 49 50 1
47 49 51 1
48 49 52 1
49 53 54 1
50 53 55 2
51 53 56 1
52 56 57 1
53 56 58 1
54 56 59 1
55 60 61 1
56 60 62 2
57 60 63 1
58 63 64 1
59 63 65 1
60 63 66 1
61 67 68 1
62 67 69 2
63 67 70 1
64 70 71 1
65 70 72 1
66 70 73 1
67 74 75 1
68 74 76 2
69 74 77 1
70 77 78 1
71 77 79 1
72 77 80 1
73 81 82 1
74 81 83 2
75 81 84 1
76 84 85 1
77 84 86 1
78 84 87 1
79 88 89 1
80 88 90 2
81 88 91 1
82 91 92 1
83 91 93 1
84 91 94 1
85 95 96 1
86 95 97 2
87 95 98 1
88 98 99 1
89 98 100 1
90 98 101 1
91 102 103 1
92 102 104 2
93 102 105 1
94 105 106 1
95 105 107 1
96 105 108 1
97 109 110 1
98 109 111 2
99 109 112 1
100 112 113 1
101 112 114 1
102 112 115 1
103 116 117 1
104 116 118 2
105 116 119 1
106 119 120 1
107 119 121 1
108 119 122 1
109 123 124 1
110 123 125 2
111 123 126 1
112 126 127 1
113 126 128 1
114 126 129 1
115 130 131 1
116 130 132 2
117 130 133 1
118 133 134 1
119 133 135 1
120 133 136 1
121 137 138 1
122 137 139 2
123 137 140 1
124 140 141 1
125 140 142 1
126 140 143 1
127 144 145 1
128 144 146 2
129 144 147 1
130 147 148 1
131 147 149 1
132 147 150 1
133 151 152 1
134 151 153 2
135 151 154 1
136 154 155 1
137 154 156 1
138 154 157 1
139 158 159 1
140 158 160 2
141 158 161 1
142 161 162 1
143 161 163 1
144 161 164 1
