@<TRIPOS>MOLECULE
Molecule Name
66 60
SMALL
NO_CHARGES

@<TRIPOS>ATOM
1 C1	0.0000	0.0000	0.0000 C
2 O2	-1.2298	0.0000	0.0000 O
3 O3	0.6881	1.1839	0.0000 O
4 H4	1.6739	1.0882	-0.0510 H
5 N5	2.0239	-1.2376	0.8546 N
6 C6	3.3908	0.0440	-0.6870 C
7 H7	2.6996	-0.0220	-1.5196 H
8 H8	4.3322	0.5373	-0.8876 H
9 C9	4.2746	-0.5377	1.5733 C
10 H10	4.6845	-1.5379	1.7617 H
11 H11	5.0965	0.1018	1.2468 H
12 H12	3.8956	-0.1505	2.5261 H
13 C13	0.8812	-3.1587	1.6067 C
14 C14	1.7931	-2.0163	2.0885 C
15 C15	0.8379	-1.3031	-0.0224 C
16 C16	0.0105	-2.5094	0.5039 C
17 H17	1.4957	-3.9649	1.1898 H
18 H18	0.2783	-3.5788	2.4172 H
19 H19	2.7338	-2.3784	2.5059 H
20 H20	1.2915	-1.4062	2.8554 H
21 H21	1.1611	-1.4665	-1.0606 H
22 H22	-0.9411	-2.1443	0.8977 H
23 H23	-0.2215	-3.2122	-0.3004 H
24 C24	3.1949	-0.5768	0.5130 C
25 C25	-2.3937	-1.5711	-2.3184 C
26 H26	-2.6201	-0.6813	-1.7006 H
27 O27	-1.2313	-1.8025	-2.6692 O
28 C28	-3.5757	-2.4292	-2.6729 C
29 H29	-4.3202	-1.8379	-3.2226 H
30 H30	-3.2616	-3.2804	-3.2806 H
31 H31	-4.0683	-2.7891	-1.7599 H
32 C32	-1.0789	-1.8667	-3.4754 C
33 H33	-0.8658	-0.9352	-4.0336 H
34 O34	-0.2542	-2.3069	-2.6666 O
35 C35	-2.4010	-2.5139	-3.7792 C
36 H36	-2.4649	-2.7585	-4.8479 H
37 H37	-2.5270	-3.4224	-3.1865 H
38 H38	-3.2212	-1.8161	-3.5643 H
39 C39	-1.3816	0.6421	3.6946 C
40 H40	-1.0630	1.6918	3.8399 H
41 O41	-0.6189	-0.1683	3.1564 O
42 C42	-2.7619	0.3114	4.1893 C
43 H43	-3.5049	0.9447	3.6865 H
44 H44	-2.9918	-0.7403	4.0062 H
45 H45	-2.8389	0.5245	5.2638 H
46 C46	-3.9547	2.0122	-0.1351 C
47 H47	-2.9358	2.4217	0.0018 H
48 O48	-4.7834	2.6270	-0.8159 O
49 C49	-4.2222	0.7021	0.5514 C
50 H50	-4.0595	0.8024	1.6328 H
51 H51	-5.2467	0.3741	0.3632 H
52 H52	-3.5186	-0.0617	0.1945 H
53 C53	-3.8930	3.0458	-1.5822 C
54 H54	-3.5842	3.7578	-0.7933 H
55 O55	-5.0560	3.0511	-2.0010 O
56 C56	-2.8170	2.1176	-2.0719 C
57 H57	-2.4242	1.5213	-1.2375 H
58 H58	-3.2081	1.4535	-2.8456 H
59 H59	-1.9738	2.6954	-2.4731 H
60 C60	-1.1788	-2.5785	-2.6682 C
61 H61	-1.7576	-1.8364	-2.0860 H
62 O62	0.0408	-2.4383	-2.8125 O
63 C63	-1.9772	-3.7170	-3.2388 C
64 H64	-2.7636	-3.3318	-3.9016 H
65 H65	-1.3291	-4.3975	-3.7949 H
66 H66	-2.4827	-4.2650	-2.4326 H
@<TRIPOS>BOND
1 1 2 2
2 1 3 1
3 1 15 1
4 3 4 1
5 5 14 1
6 5 15 1
7 5 24 1
8 6 7 1
9 6 8 1
10 6 24 2
11 9 10 1
12 9 11 1
13 9 12 1
14 9 24 1
15 13 14 1
16 13 16 1
17 13 17 1
18 13 18 1
19 14 19 1
20 14 20 1
21 15 16 1
22 15 21 1
23 16 22 1
24 16 23 1
25 25 26 1
26 25 27 2
27 25 28 1
28 28 29 1
29 28 30 1
30 28 31 1
31 32 33 1
32 32 34 2
33 32 35 1
34 35 36 1
35 35 37 1
36 35 38 1
37 39 40 1
38 39 41 2
39 39 42 1
40 42 43 1
41 42 44 1
42 42 45 1
43 46 47 1
44 46 48 2
45 46 49 1
46 49 50 1
47 49 51 1
48 49 52 1
49 53 54 1
50 53 55 2
51 53 56 1
52 56 57 1
53 56 58 1
54 56 59 1
55 60 61 1
56 60 62 2
57 60 63 1
58 63 64 1
59 63 65 1
60 63 66 1
