@<TRIPOS>MOLECULE
Molecule Name
38 36
SMALL
NO_CHARGES

@<TRIPOS>ATOM
1 C1	0.0000	0.0000	0.0000 C
2 O2	-1.2238	0.0000	0.0000 O
3 O3	0.6911	1.2023	0.0000 O
4 H4	1.6618	1.0855	0.0468 H
5 N5	0.4154	-2.3123	0.8346 N
6 C6	0.9921	-1.0361	2.8093 C
7 H7	1.3139	-0.1587	2.2637 H
8 H8	1.0505	-0.9738	3.8878 H
9 C9	0.4970	-2.1505	2.2199 C
10 C10	0.0134	-3.3188	3.0505 C
11 H11	0.6064	-4.2242	2.8675 H
12 H12	0.0894	-3.0775	4.1124 H
13 H13	-1.0341	-3.5607	2.8327 H
14 C14	0.5538	-3.4266	-1.2302 C
15 C15	-0.1598	-3.4727	0.1306 C
16 C16	0.8617	-1.2747	-0.0870 C
17 C17	0.6988	-1.9138	-1.5035 C
18 H18	1.5392	-3.9000	-1.1496 H
19 H19	-0.0076	-3.9368	-2.0184 H
20 H20	0.0413	-4.4000	0.6715 H
21 H21	-1.2492	-3.3735	0.0102 H
22 H22	1.9140	-1.0212	0.1250 H
23 H23	-0.2148	-1.5302	-1.9695 H
24 H24	1.5420	-1.6741	-2.1569 H
25 C25	3.9451	3.1913	-0.8257 C
26 H26	3.9336	3.6545	0.1793 H
27 O27	3.4615	2.0664	-0.9952 O
28 C28	4.5735	4.0191	-1.9115 C
29 H29	5.6153	4.2520	-1.6537 H
30 H30	4.5413	3.4873	-2.8647 H
31 H31	4.0484	4.9789	-2.0063 H
32 C32	3.7600	3.1963	0.6568 C
33 H33	3.9331	3.4646	-0.4027 H
34 O34	3.5451	2.0203	0.9712 O
35 C35	3.8087	4.3411	1.6295 C
36 H36	3.0566	5.0955	1.3626 H
37 H37	3.6283	3.9866	2.6465 H
38 H38	4.7869	4.8375	1.5797 H
@<TRIPOS>BOND
1 1 2 2
2 1 3 1
3 1 16 1
4 3 4 1
5 5 9 1
6 5 15 1
7 5 16 1
8 6 7 1
9 6 8 1
10 6 9 2
11 9 10 1
12 10 11 1
13 10 12 1
14 10 13 1
15 14 15 1
16 14 17 1
17 14 18 1
18 14 19 1
19 15 20 1
20 15 21 1
21 16 17 1
22 16 22 1
23 17 23 1
24 17 24 1
25 25 26 1
26 25 27 2
27 25 28 1
28 28 29 1
29 28 30 1
30 28 31 1
31 32 33 1
32 32 34 2
33 32 35 1
34 35 36 1
35 35 37 1
36 35 38 1
