@<TRIPOS>MOLECULE
Molecule Name
213 186
SMALL
NO_CHARGES

@<TRIPOS>ATOM
1 C1	0.0000	0.0000	0.0000 C
2 O2	-1.2291	0.0000	0.0000 O
3 O3	0.7352	1.1552	0.0000 O
4 H4	1.6938	0.8931	0.0110 H
5 N5	2.2937	-0.9966	-0.0600 N
6 C6	4.3264	-1.2975	-1.3542 C
7 H7	4.9387	-1.5024	-0.4856 H
8 H8	4.8366	-1.2720	-2.3088 H
9 C9	3.0003	-1.0568	-1.2920 C
10 C10	2.1883	-0.7612	-2.5344 C
11 H11	1.6350	0.1810	-2.4407 H
12 H12	2.8486	-0.6815	-3.4004 H
13 H13	1.4567	-1.5502	-2.7497 H
14 C14	1.8555	-1.4869	2.2293 C
15 C15	2.9868	-1.3898	1.1948 C
16 C16	0.8350	-1.2926	0.0333 C
17 C17	0.6718	-2.0187	1.3955 C
18 H18	2.1145	-2.1442	3.0638 H
19 H19	1.6223	-0.4975	2.6408 H
20 H20	3.4868	-2.3620	1.0621 H
21 H21	3.7527	-0.6521	1.4544 H
22 H22	0.4859	-1.9242	-0.7878 H
23 H23	-0.3076	-1.8236	1.8380 H
24 H24	0.7692	-3.0998	1.2445 H
25 C25	-2.0994	-3.0921	-1.5153 C
26 H26	-2.7572	-2.4588	-0.8903 H
27 O27	-1.0761	-3.5892	-1.0317 O
28 C28	-2.5462	-3.2813	-2.9378 C
29 H29	-2.6269	-2.3084	-3.4408 H
30 H30	-1.8416	-3.9167	-3.4785 H
31 H31	-3.5460	-3.7347	-2.9624 H
32 C32	2.1290	3.5631	-0.3336 C
33 H33	1.6056	3.9578	0.5579 H
34 O34	3.0417	2.7398	-0.2025 O
35 C35	1.6483	4.0966	-1.6540 C
36 H36	1.7510	5.1897	-1.6795 H
37 H37	2.2175	3.6552	-2.4748 H
38 H38	0.5806	3.8756	-1.7845 H
39 C39	0.6366	2.6223	3.0970 C
40 H40	1.4137	2.9970	2.4040 H
41 O41	0.5344	1.4102	3.3167 O
42 C42	-0.2397	3.6754	3.7153 C
43 H43	-0.7566	4.2446	2.9312 H
44 H44	-0.9741	3.2184	4.3819 H
45 H45	0.3722	4.3936	4.2771 H
46 C46	2.0605	-4.4257	-2.4444 C
47 H47	2.9455	-3.8596	-2.7921 H
48 O48	1.1269	-3.8362	-1.8886 O
49 C49	2.0995	-5.9064	-2.6996 C
50 H50	2.9768	-6.3508	-2.2109 H
51 H51	1.1906	-6.3827	-2.3260 H
52 H52	2.2032	-6.1016	-3.7752 H
53 C53	3.6168	3.3882	-1.2268 C
54 H54	3.5578	3.7489	-2.2713 H
55 O55	3.2979	2.2256	-0.9537 O
56 C56	4.0977	4.3966	-0.2213 C
57 H57	3.4373	5.2740	-0.2209 H
58 H58	4.1247	3.9570	0.7780 H
59 H59	5.0994	4.7540	-0.4945 H
60 C60	0.2495	-4.5753	-2.9438 C
61 H61	1.2839	-4.7833	-3.2775 H
62 O62	-0.0138	-3.5148	-2.3659 O
63 C63	-0.7554	-5.6517	-3.2452 C
64 H64	-0.4501	-6.5957	-2.7743 H
65 H65	-1.7444	-5.3636	-2.8827 H
66 H66	-0.7980	-5.8363	-4.3268 H
67 C67	-4.2112	0.5005	1.0040 C
68 H68	-4.3150	0.0270	0.0092 H
69 O69	-4.6203	-0.0832	2.0139 O
70 C70	-3.5578	1.8541	1.0102 C
71 H71	-4.1273	2.5511	0.3810 H
72 H72	-3.4970	2.2445	2.0283 H
73 H73	-2.5501	1.7889	0.5790 H
74 C74	0.7023	-4.7561	-2.2898 C
75 H75	0.9121	-4.1719	-3.2059 H
76 O76	0.6068	-4.1840	-1.1982 O
77 C77	0.5518	-6.2383	-2.4890 C
78 H78	1.4663	-6.6544	-2.9324 H
79 H79	0.3473	-6.7331	-1.5372 H
80 H80	-0.2642	-6.4435	-3.1946 H
81 C81	-1.6320	-2.4976	-2.8658 C
82 H82	-1.3637	-1.7088	-2.1376 H
83 O83	-0.8812	-3.4647	-3.0365 O
84 C84	-2.9318	-2.2918	-3.5918 C
85 H85	-2.9108	-1.3414	-4.1416 H
86 H86	-3.1159	-3.1139	-4.2867 H
87 H87	-3.7591	-2.2237	-2.8729 H
88 C88	-1.7088	-0.9248	-4.0918 C
89 H89	-2.4041	-1.5983	-4.6279 H
90 O90	-0.6845	-1.3793	-3.5700 O
91 C91	-2.1083	0.5238	-4.0599 C
92 H92	-3.0921	0.6338	-3.5843 H
93 H93	-1.3685	1.1125	-3.5133 H
94 H94	-2.2058	0.9112	-5.0828 H
95 C95	-3.2533	-1.6117	2.3248 C
96 H96	-2.5777	-1.9016	1.4977 H
97 O97	-3.2718	-2.2714	3.3700 O
98 C98	-4.1043	-0.3994	2.0693 C
99 H99	-4.7326	-0.5592	1.1829 H
100 H100	-4.7365	-0.1870	2.9340 H
101 H101	-3.4685	0.4697	1.8545 H
102 C102	-4.5906	1.2244	1.7971 C
103 H103	-4.4365	2.2720	1.4754 H
104 O104	-4.8254	0.9685	2.9834 O
105 C105	-4.4922	0.1931	0.7081 C
106 H106	-3.5038	0.2402	0.2317 H
107 H107	-4.6570	-0.8076	1.1133 H
108 H108	-5.2323	0.4003	-0.0762 H
109 C109	1.5797	2.0093	3.1848 C
110 H110	0.8834	1.7842	2.3547 H
111 O111	2.6824	1.4532	3.2368 O
112 C112	1.0817	3.0061	4.1935 C
113 H113	0.1468	2.6500	4.6465 H
114 H114	1.8292	3.1672	4.9731 H
115 H115	0.8515	3.9597	3.7001 H
116 C116	-3.8868	2.2148	-1.1316 C
117 H117	-3.9774	1.8854	-0.0791 H
118 O118	-4.8943	2.3020	-1.8425 O
119 C119	-2.4914	2.5306	-1.5920 C
120 H120	-1.8467	1.6493	-1.4751 H
121 H121	-2.4959	2.8460	-2.6375 H
122 H122	-2.0587	3.3245	-0.9688 H
123 C123	4.5568	1.4646	3.8284 C
124 H124	4.7499	0.6954	4.6003 H
125 O125	3.8834	1.1854	2.8301 O
126 C126	5.1614	2.8144	4.0960 C
127 H127	6.2515	2.7268	4.1960 H
128 H128	4.9215	3.5079	3.2872 H
129 H129	4.7870	3.2138	5.0479 H
130 C130	5.2810	-4.1328	3.1994 C
131 H131	4.4518	-4.3035	3.9121 H
132 O132	5.0420	-3.7299	2.0555 O
133 C133	6.6576	-4.4233	3.7283 C
134 H134	6.7241	-5.4702	4.0532 H
135 H135	7.4106	-4.2282	2.9618 H
136 H136	6.8611	-3.8038	4.6118 H
137 C137	3.5955	-2.1865	-5.7670 C
138 H138	2.6032	-1.8165	-6.0881 H
139 O139	4.2841	-1.5174	-4.9885 O
140 C140	4.0061	-3.5142	-6.3392 C
141 H141	4.0221	-3.4640	-7.4362 H
142 H142	4.9934	-3.8005	-5.9705 H
143 H143	3.2729	-4.2853	-6.0680 H
144 C144	-0.5345	5.1498	1.4646 C
145 H145	-0.6074	5.6928	0.5031 H
146 O146	-1.1966	5.5236	2.4392 O
147 C147	0.3999	3.9725	1.4724 C
148 H148	1.4159	4.2951	1.2084 H
149 H149	0.4093	3.4985	2.4562 H
150 H150	0.0923	3.2412	0.7132 H
151 C151	0.8562	-4.9824	-0.6918 C
152 H152	1.4230	-5.1952	0.2345 H
153 O153	1.1755	-4.0268	-1.4080 O
154 C154	-0.2826	-5.9194	-0.9822 C
155 H155	-1.0039	-5.9049	-0.1542 H
156 H156	-0.7834	-5.6363	-1.9104 H
157 H157	0.0875	-6.9502	-1.0619 H
158 C158	-4.0788	3.2159	0.5538 C
159 H159	-3.6066	4.0630	0.0207 H
160 O160	-5.0519	3.4122	1.2903 O
161 C161	-3.4551	1.8704	0.3094 C
162 H162	-2.3973	1.8854	0.6042 H
163 H163	-3.9821	1.0969	0.8721 H
164 H164	-3.4822	1.6306	-0.7618 H
165 C165	3.8475	3.1461	0.0290 C
166 H166	4.5860	2.3983	0.3754 H
167 O167	2.8481	2.7841	-0.6019 O
168 C168	4.1598	4.5736	0.3811 C
169 H169	5.1315	4.8627	-0.0412 H
170 H170	3.3820	5.2398	0.0020 H
171 H171	4.2422	4.6844	1.4705 H
172 C172	4.6144	-4.0293	-3.7455 C
173 H173	5.2269	-3.4076	-3.0651 H
174 O174	3.5137	-3.6226	-4.1342 O
175 C175	5.2180	-5.3501	-4.1329 C
176 H176	5.4138	-5.9532	-3.2362 H
177 H177	4.5489	-5.8945	-4.8026 H
178 H178	6.1862	-5.1925	-4.6264 H
179 C179	2.6885	5.1796	-0.3897 C
180 H180	1.7303	5.5904	-0.7609 H
181 O181	3.5315	5.9310	0.1131 O
182 C182	2.8591	3.6947	-0.5472 C
183 H183	2.7793	3.4157	-1.6064 H
184 H184	3.8282	3.3776	-0.1561 H
185 H185	2.0561	3.1641	-0.0185 H
186 C186	5.9357	0.0836	-5.1189 C
187 H187	5.8693	0.8383	-5.9255 H
188 O188	5.3847	-1.0150	-5.2512 O
189 C189	6.7209	0.5006	-3.9070 C
190 H190	6.2812	1.4046	-3.4649 H
191 H191	6.7343	-0.3013	-3.1657 H
192 H192	7.7498	0.7560	-4.1932 H
193 C193	0.3387	4.5003	-1.5297 C
194 H194	-0.5851	4.0400	-1.1307 H
195 O195	0.4639	5.7301	-1.5399 O
196 C196	1.3758	3.5359	-2.0332 C
197 H197	0.9554	2.9138	-2.8346 H
198 H198	2.2494	4.0744	-2.4064 H
199 H199	1.6790	2.8533	-1.2282 H
200 C200	0.0922	4.3011	-2.9287 C
201 H201	0.7668	4.8841	-2.2733 H
202 O202	-0.4368	4.8384	-3.9083 O
203 C203	-0.1099	2.8649	-2.5343 C
204 H204	-0.5213	2.8069	-1.5177 H
205 H205	-0.7864	2.3682	-3.2329 H
206 H206	0.8539	2.3390	-2.5166 H
207 C207	4.1211	0.1198	-5.7360 C
208 H208	3.0778	0.3623	-6.0138 H
209 O209	4.5253	0.3444	-4.5896 O
210 C210	4.9587	-0.4792	-6.8308 C
211 H211	5.0060	0.2059	-7.6878 H
212 H212	5.9685	-0.6860	-6.4700 H
213 H213	4.4987	-1.4083	-7.1928 H
@<TRIPOS>BOND
1 1 2 2
2 1 3 1
3 1 16 1
4 3 4 1
5 5 9 1
6 5 15 1
7 5 16 1
8 6 7 1
9 6 8 1
10 6 9 2
11 9 10 1
12 10 11 1
13 10 12 1
14 10 13 1
15 14 15 1
16 14 17 1
17 14 18 1
18 14 19 1
19 15 20 1
20 15 21 1
21 16 17 1
22 16 22 1
23 17 23 1
24 17 24 1
25 25 26 1
26 25 27 2
27 25 28 1
28 28 29 1
29 28 30 1
30 28 31 1
31 32 33 1
32 32 34 2
33 32 35 1
34 35 36 1
35 35 37 1
36 35 38 1
37 39 40 1
38 39 41 2
39 39 42 1
40 42 43 1
41 42 44 1
42 42 45 1
43 46 47 1
44 46 48 2
45 46 49 1
46 49 50 1
47 49 51 1
48 49 52 1
49 53 54 1
50 53 55 2
51 53 56 1
52 56 57 1
53 56 58 1
54 56 59 1
55 60 61 1
56 60 62 2
57 60 63 1
58 63 64 1
59 63 65 1
60 63 66 1
61 67 68 1
62 67 69 2
63 67 70 1
64 70 71 1
65 70 72 1
66 70 73 1
67 74 75 1
68 74 76 2
69 74 77 1
70 77 78 1
71 77 79 1
72 77 80 1
73 81 82 1
74 81 83 2
75 81 84 1
76 84 85 1
77 84 86 1
78 84 87 1
79 88 89 1
80 88 90 2
81 88 91 1
82 91 92 1
83 91 93 1
84 91 94 1
85 95 96 1
86 95 97 2
87 95 98 1
88 98 99 1
89 98 100 1
90 98 101 1
91 102 103 1
92 102 104 2
93 102 105 1
94 105 106 1
95 105 107 1
96 105 108 1
97 109 110 1
98 109 111 2
99 109 112 1
100 112 113 1
101 112 114 1
102 112 115 1
103 116 117 1
104 116 118 2
105 116 119 1
106 119 120 1
107 119 121 1
108 119 122 1
109 123 124 1
110 123 125 2
111 123 126 1
112 126 127 1
113 126 128 1
114 126 129 1
115 130 131 1
116 130 132 2
117 130 133 1
118 133 134 1
119 133 135 1
120 133 136 1
121 137 138 1
122 137 139 2
123 137 140 1
124 140 141 1
125 140 142 1
126 140 143 1
127 144 145 1
128 144 146 2
129 144 147 1
130 147 148 1
131 147 149 1
132 147 150 1
133 151 152 1
134 151 153 2
135 151 154 1
136 154 155 1
137 154 156 1
138 154 157 1
139 158 159 1
140 158 160 2
141 158 161 1
142 161 162 1
143 161 163 1
144 161 164 1
145 165 166 1
146 165 167 2
147 165 168 1
148 168 169 1
149 168 170 1
150 168 171 1
151 172 173 1
152 172 174 2
153 172 175 1
154 175 176 1
155 175 177 1
156 175 178 1
157 179 180 1
158 179 181 2
159 179 182 1
160 182 183 1
161 182 184 1
162 182 185 1
163 186 187 1
164 186 188 2
165 186 189 1
166 189 190 1
167 189 191 1
168 189 192 1
169 193 194 1
170 193 195 2
171 193 196 1
172 196 197 1
173 196 198 1
174 196 199 1
175 200 201 1
176 200 202 2
177 200 203 1
178 203 204 1
179 203 205 1
180 203 206 1
181 207 208 1
182 207 209 2
183 207 210 1
184 210 211 1
185 210 212 1
186 210 213 1
