@<TRIPOS>MOLECULE
Molecule Name
80 72
SMALL
NO_CHARGES

@<TRIPOS>ATOM
1 C1	0.0000	0.0000	0.0000 C
2 O2	-1.2277	0.0000	0.0000 O
3 O3	0.7282	1.1653	0.0000 O
4 H4	1.6891	0.9384	-0.0528 H
5 N5	2.2374	-1.0721	-0.3625 N
6 C6	3.8790	-0.9407	-2.1454 C
7 H7	4.7241	-1.0195	-1.4734 H
8 H8	4.1074	-0.8273	-3.1973 H
9 C9	2.5932	-0.9425	-1.7310 C
10 C10	1.4550	-0.7647	-2.7128 C
11 H11	0.8870	0.1533	-2.5204 H
12 H12	1.8525	-0.7002	-3.7276 H
13 H13	0.7474	-1.6019	-2.6833 H
14 C14	2.3493	-2.4254	1.6128 C
15 C15	3.2143	-1.6524	0.5997 C
16 C16	0.8410	-1.2749	0.0897 C
17 C17	0.9956	-1.6932	1.5790 C
18 H18	2.2252	-3.4639	1.2835 H
19 H19	2.7911	-2.4430	2.6133 H
20 H20	3.9089	-2.3108	0.0665 H
21 H21	3.8053	-0.8621	1.0809 H
22 H22	0.3197	-2.0567	-0.4748 H
23 H23	1.0306	-0.7982	2.2122 H
24 H24	0.1530	-2.3044	1.9090 H
25 C25	-2.7977	-2.4371	-1.6892 C
26 H26	-3.2298	-1.5492	-1.1898 H
27 O27	-1.5867	-2.6694	-1.6016 O
28 C28	-3.7748	-3.2918	-2.4468 C
29 H29	-4.2729	-2.6972	-3.2242 H
30 H30	-3.2643	-4.1415	-2.9051 H
31 H31	-4.5617	-3.6542	-1.7721 H
32 C32	1.9704	1.5823	3.7317 C
33 H33	2.4793	1.6488	4.7120 H
34 O34	2.4576	0.8968	2.8257 O
35 C35	0.6935	2.3661	3.6121 C
36 H36	0.8846	3.4306	3.8028 H
37 H37	0.2613	2.2433	2.6167 H
38 H38	-0.0267	2.0325	4.3709 H
39 C39	-3.8648	1.1485	2.4397 C
40 H40	-4.5383	0.6205	1.7380 H
41 O41	-3.8856	0.8727	3.6445 O
42 C42	-2.9668	2.1818	1.8193 C
43 H43	-3.5676	2.9489	1.3127 H
44 H44	-2.3398	2.6502	2.5809 H
45 H45	-2.3320	1.7187	1.0522 H
46 C46	3.5392	1.9242	2.3339 C
47 H47	4.2646	2.1487	1.5289 H
48 O48	3.2854	0.7511	2.6299 O
49 C49	2.9224	3.1218	3.0004 C
50 H50	2.3974	3.7382	2.2584 H
51 H51	2.2228	2.8084	3.7782 H
52 H52	3.7050	3.7538	3.4406 H
53 C53	-3.5374	-2.0358	-1.2737 C
54 H54	-2.6386	-1.6437	-0.7609 H
55 O55	-3.4698	-3.0806	-1.9308 O
56 C56	-4.7868	-1.2177	-1.1036 C
57 H57	-4.6239	-0.1978	-1.4768 H
58 H58	-5.6200	-1.6762	-1.6403 H
59 H59	-5.0380	-1.1290	-0.0383 H
60 C60	-1.4452	3.5347	1.8303 C
61 H61	-0.9549	4.2585	1.1518 H
62 O62	-1.1070	3.4712	3.0176 O
63 C63	-2.5089	2.6785	1.2023 C
64 H64	-2.0859	2.1014	0.3691 H
65 H65	-2.9368	1.9973	1.9408 H
66 H66	-3.3015	3.3103	0.7799 H
67 C67	-5.3377	0.9102	1.3582 C
68 H68	-5.7720	-0.1003	1.4802 H
69 O69	-5.7405	1.8464	2.0577 O
70 C70	-4.2646	1.0303	0.3127 C
71 H71	-4.6572	0.7294	-0.6677 H
72 H72	-3.8947	2.0565	0.2608 H
73 H73	-3.4343	0.3499	0.5440 H
74 C74	3.5891	1.6725	-5.1765 C
75 H75	3.9702	2.2316	-4.3008 H
76 O76	3.2986	0.4758	-5.0692 O
77 C77	3.4643	2.4673	-6.4461 C
78 H78	4.4412	2.8811	-6.7300 H
79 H79	3.0826	1.8396	-7.2541 H
80 H80	2.7911	3.3211	-6.2924 H
@<TRIPOS>BOND
1 1 2 2
2 1 3 1
3 1 16 1
4 3 4 1
5 5 9 1
6 5 15 1
7 5 16 1
8 6 7 1
9 6 8 1
10 6 9 2
11 9 10 1
12 10 11 1
13 10 12 1
14 10 13 1
15 14 15 1
16 14 17 1
17 14 18 1
18 14 19 1
19 15 20 1
20 15 21 1
21 16 17 1
22 16 22 1
23 17 23 1
24 17 24 1
25 25 26 1
26 25 27 2
27 25 28 1
28 28 29 1
29 28 30 1
30 28 31 1
31 32 33 1
32 32 34 2
33 32 35 1
34 35 36 1
35 35 37 1
36 35 38 1
37 39 40 1
38 39 41 2
39 39 42 1
40 42 43 1
41 42 44 1
42 42 45 1
43 46 47 1
44 46 48 2
45 46 49 1
46 49 50 1
47 49 51 1
48 49 52 1
49 53 54 1
50 53 55 2
51 53 56 1
52 56 57 1
53 56 58 1
54 56 59 1
55 60 61 1
56 60 62 2
57 60 63 1
58 63 64 1
59 63 65 1
60 63 66 1
61 67 68 1
62 67 69 2
63 67 70 1
64 70 71 1
65 70 72 1
66 70 73 1
67 74 75 1
68 74 76 2
69 74 77 1
70 77 78 1
71 77 79 1
72 77 80 1
