@<TRIPOS>MOLECULE
Molecule Name
150 132
SMALL
NO_CHARGES

@<TRIPOS>ATOM
1 C1	0.0000	0.0000	0.0000 C
2 O2	-1.2347	0.0000	0.0000 O
3 O3	0.7332	1.1692	0.0000 O
4 H4	0.1359	1.9479	-0.0325 H
5 C5	2.2755	-0.7826	-3.4640 C
6 H6	3.2413	-0.3329	-3.2698 H
7 H7	1.9769	-0.8658	-4.5014 H
8 C8	1.4602	-1.2315	-2.4830 C
9 C9	0.0990	-1.8203	-2.7934 C
10 H10	-0.7193	-1.2571	-2.3297 H
11 H11	-0.0680	-1.8228	-3.8726 H
12 H12	0.0265	-2.8551	-2.4339 H
13 C13	3.2281	-1.5351	0.7320 C
14 C14	3.2027	-0.9449	-0.6870 C
15 N15	1.8381	-1.2479	-1.1331 N
16 C16	0.8878	-1.2386	-0.0108 C
17 C17	1.7944	-1.2928	1.2635 C
18 H18	3.4398	-2.6088	0.6797 H
19 H19	3.9861	-1.0698	1.3691 H
20 H20	3.9203	-1.4245	-1.3601 H
21 H21	3.4061	0.1377	-0.6818 H
22 H22	0.2065	-2.0925	-0.0630 H
23 H23	1.7453	-0.3388	1.7959 H
24 H24	1.4618	-2.0772	1.9484 H
25 C25	0.6345	5.1037	0.3655 C
26 H26	0.3477	5.3608	-0.6720 H
27 O27	0.2293	4.0546	0.8786 O
28 C28	1.5198	6.1020	1.0573 C
29 H29	1.0263	7.0824	1.0945 H
30 H30	1.7518	5.7691	2.0712 H
31 H31	2.4509	6.2372	0.4911 H
32 C32	-2.3728	3.0484	-0.2562 C
33 H33	-3.1150	2.2589	-0.0313 H
34 O34	-1.5449	3.3823	0.5988 O
35 C35	-2.4627	3.6466	-1.6321 C
36 H36	-3.4566	4.0868	-1.7882 H
37 H37	-1.6965	4.4130	-1.7665 H
38 H38	-2.3396	2.8642	-2.3927 H
39 C39	-1.4958	4.1333	1.4561 C
40 H40	-1.1008	3.8010	2.4350 H
41 O41	-1.6158	3.3241	0.5293 O
42 C42	-1.8550	5.5899	1.3650 C
43 H43	-0.9753	6.2100	1.5831 H
44 H44	-2.2345	5.8285	0.3692 H
45 H45	-2.6135	5.8396	2.1187 H
46 C46	1.0325	-5.1602	0.1615 C
47 H47	1.6231	-4.8821	1.0550 H
48 O48	0.1858	-4.3803	-0.2890 O
49 C49	1.3420	-6.5097	-0.4234 C
50 H50	1.1762	-7.2937	0.3276 H
51 H51	0.7158	-6.7003	-1.2975 H
52 H52	2.4010	-6.5634	-0.7091 H
53 C53	-5.4479	1.2003	-0.2143 C
54 H54	-5.4721	0.9327	-1.2878 H
55 O55	-6.2876	1.9802	0.2490 O
56 C56	-4.3513	0.5570	0.5874 C
57 H57	-3.3716	0.8229	0.1684 H
58 H58	-4.4031	0.8757	1.6306 H
59 H59	-4.4339	-0.5365	0.5309 H
60 C60	6.2588	-2.0462	-3.8500 C
61 H61	6.7912	-3.0162	-3.8662 H
62 O62	5.6708	-1.6789	-2.8265 O
63 C63	6.3157	-1.2565	-5.1276 C
64 H64	5.8897	-1.8425	-5.9529 H
65 H65	5.7668	-0.3183	-5.0219 H
66 H66	7.3597	-1.0453	-5.3947 H
67 C67	-5.4795	0.1073	1.0033 C
68 H68	-5.2563	-0.0701	2.0725 H
69 O69	-6.5902	0.5308	0.6641 O
70 C70	-4.3592	-0.2003	0.0497 C
71 H71	-4.0608	-1.2529	0.1447 H
72 H72	-4.6657	0.0030	-0.9786 H
73 H73	-3.4759	0.4031	0.2976 H
74 C74	4.3256	-5.1459	-1.4069 C
75 H75	4.5412	-5.2335	-2.4888 H
76 O76	4.3785	-4.0427	-0.8518 O
77 C77	3.9795	-6.4323	-0.7108 C
78 H78	4.8021	-7.1521	-0.8167 H
79 H79	3.7828	-6.2529	0.3483 H
80 H80	3.0968	-6.8888	-1.1780 H
81 C81	6.5828	-3.0398	-1.7320 C
82 H82	5.9972	-3.8905	-1.3346 H
83 O83	6.0063	-2.0154	-2.1144 O
84 C84	8.0724	-3.2384	-1.7612 C
85 H85	8.3245	-4.1150	-2.3728 H
86 H86	8.5682	-2.3536	-2.1659 H
87 H87	8.4463	-3.4404	-0.7487 H
88 C88	3.4966	3.9524	-1.0563 C
89 H89	3.2579	3.4482	-2.0120 H
90 O90	3.2554	5.1564	-0.9136 O
91 C91	4.1117	3.0775	-0.0003 C
92 H92	5.0460	2.6365	-0.3724 H
93 H93	4.3131	3.6546	0.9047 H
94 H94	3.4394	2.2422	0.2366 H
95 C95	5.5041	-2.8866	-5.7069 C
96 H96	5.4926	-1.9841	-6.3471 H
97 O97	5.5205	-4.0108	-6.2207 O
98 C98	5.4981	-2.6285	-4.2262 C
99 H99	4.6079	-2.0488	-3.9476 H
100 H100	5.5104	-3.5705	-3.6739 H
101 H101	6.3707	-2.0241	-3.9448 H
102 C102	4.6315	-4.6990	-2.3688 C
103 H103	3.7394	-5.3434	-2.2534 H
104 O104	4.5461	-3.4815	-2.1731 O
105 C105	5.8948	-5.4097	-2.7666 C
106 H106	5.7498	-5.9310	-3.7223 H
107 H107	6.7202	-4.7004	-2.8570 H
108 H108	6.1469	-6.1766	-2.0223 H
109 C109	5.6115	-4.0575	-0.5546 C
110 H110	5.4856	-4.0009	0.5433 H
111 O111	5.5626	-3.0285	-1.2378 O
112 C112	5.8366	-5.4363	-1.1090 C
113 H113	4.9935	-6.0901	-0.8487 H
114 H114	5.9499	-5.3981	-2.1945 H
115 H115	6.7339	-5.8821	-0.6597 H
116 C116	3.2881	-4.9395	-5.5020 C
117 H117	3.9571	-4.6620	-6.3387 H
118 O118	3.5641	-5.9058	-4.7823 O
119 C119	2.0721	-4.0726	-5.3321 C
120 H120	1.4653	-4.0899	-6.2473 H
121 H121	1.4721	-4.4170	-4.4872 H
122 H122	2.3722	-3.0287	-5.1706 H
123 C123	2.4275	1.3332	-6.4982 C
124 H124	3.4534	1.3066	-6.0840 H
125 O125	1.7131	0.3256	-6.4493 O
126 C126	2.0061	2.6461	-7.0965 C
127 H127	2.6881	2.9263	-7.9104 H
128 H128	0.9852	2.5818	-7.4787 H
129 H129	2.0686	3.4420	-6.3426 H
130 C130	6.4567	-1.1952	-3.2380 C
131 H131	7.4835	-0.8018	-3.1134 H
132 O132	5.5256	-0.4255	-3.4997 O
133 C133	6.3090	-2.6812	-3.0671 C
134 H134	6.6486	-2.9819	-2.0670 H
135 H135	5.2681	-2.9805	-3.2067 H
136 H136	6.9450	-3.2094	-3.7898 H
137 C137	4.9112	3.5742	1.4639 C
138 H138	4.9874	4.2651	0.6028 H
139 O139	5.0428	4.0029	2.6158 O
140 C140	4.6457	2.1361	1.1169 C
141 H141	5.4425	1.7513	0.4665 H
142 H142	4.5860	1.5291	2.0227 H
143 H143	3.7074	2.0508	0.5529 H
144 C144	5.3463	2.8527	-4.0299 C
145 H145	5.6645	2.0126	-4.6762 H
146 O146	6.0908	3.8261	-3.8675 O
147 C147	3.9900	2.7049	-3.3993 C
148 H148	3.9568	1.7961	-2.7837 H
149 H149	3.7587	3.5753	-2.7816 H
150 H150	3.2229	2.5895	-4.1765 H
@<TRIPOS>BOND
1 1 2 2
2 1 3 1
3 1 16 1
4 3 4 1
5 5 6 1
6 5 7 1
7 5 8 2
8 8 9 1
9 8 15 1
10 9 10 1
11 9 11 1
12 9 12 1
13 13 14 1
14 13 17 1
15 13 18 1
16 13 19 1
17 14 15 1
18 14 20 1
19 14 21 1
20 15 16 1
21 16 17 1
22 16 22 1
23 17 23 1
24 17 24 1
25 25 26 1
26 25 27 2
27 25 28 1
28 28 29 1
29 28 30 1
30 28 31 1
31 32 33 1
32 32 34 2
33 32 35 1
34 35 36 1
35 35 37 1
36 35 38 1
37 39 40 1
38 39 41 2
39 39 42 1
40 42 43 1
41 42 44 1
42 42 45 1
43 46 47 1
44 46 48 2
45 46 49 1
46 49 50 1
47 49 51 1
48 49 52 1
49 53 54 1
50 53 55 2
51 53 56 1
52 56 57 1
53 56 58 1
54 56 59 1
55 60 61 1
56 60 62 2
57 60 63 1
58 63 64 1
59 63 65 1
60 63 66 1
61 67 68 1
62 67 69 2
63 67 70 1
64 70 71 1
65 70 72 1
66 70 73 1
67 74 75 1
68 74 76 2
69 74 77 1
70 77 78 1
71 77 79 1
72 77 80 1
73 81 82 1
74 81 83 2
75 81 84 1
76 84 85 1
77 84 86 1
78 84 87 1
79 88 89 1
80 88 90 2
81 88 91 1
82 91 92 1
83 91 93 1
84 91 94 1
85 95 96 1
86 95 97 2
87 95 98 1
88 98 99 1
89 98 100 1
90 98 101 1
91 102 103 1
92 102 104 2
93 102 105 1
94 105 106 1
95 105 107 1
96 105 108 1
97 109 110 1
98 109 111 2
99 109 112 1
100 112 113 1
101 112 114 1
102 112 115 1
103 116 117 1
104 116 118 2
105 116 119 1
106 119 120 1
107 119 121 1
108 119 122 1
109 123 124 1
110 123 125 2
111 123 126 1
112 126 127 1
113 126 128 1
114 126 129 1
115 130 131 1
116 130 132 2
117 130 133 1
118 133 134 1
119 133 135 1
120 133 136 1
121 137 138 1
122 137 139 2
123 137 140 1
124 140 141 1
125 140 142 1
126 140 143 1
127 144 145 1
128 144 146 2
129 144 147 1
130 147 148 1
131 147 149 1
132 147 150 1
