@<TRIPOS>MOLECULE
Molecule Name
227 198
SMALL
NO_CHARGES

@<TRIPOS>ATOM
1 C1	0.0000	0.0000	0.0000 C
2 O2	-1.2347	0.0000	0.0000 O
3 O3	0.7299	1.1715	0.0000 O
4 H4	0.1277	1.9474	-0.0239 H
5 N5	1.8600	-1.2616	-1.0929 N
6 C6	3.0751	-0.6092	0.8637 C
7 C7	3.1961	-0.8175	-0.6630 C
8 C8	2.4721	-1.3227	-3.4265 C
9 H9	3.4738	-0.9518	-3.2521 H
10 H10	2.2131	-1.5605	-4.4503 H
11 C11	1.5646	-1.5038	-2.4383 C
12 C12	0.1771	-2.0333	-2.7349 C
13 H13	-0.6129	-1.3593	-2.3830 H
14 H14	0.0526	-2.1641	-3.8117 H
15 H15	0.0098	-3.0073	-2.2560 H
16 C16	0.8812	-1.2464	-0.0050 C
17 C17	1.7731	-1.3436	1.2594 C
18 H18	3.9428	-1.0025	1.4017 H
19 H19	2.9877	0.4561	1.0911 H
20 H20	3.9379	-1.5844	-0.9281 H
21 H21	3.4848	0.1114	-1.1735 H
22 H22	0.1905	-2.0899	-0.0736 H
23 H23	1.2959	-0.9176	2.1469 H
24 H24	1.9682	-2.4035	1.4568 H
25 C25	-0.8860	4.6747	-1.3250 C
26 H26	-0.4834	4.4299	-2.3262 H
27 O27	-0.3852	4.1682	-0.3147 O
28 C28	-2.0427	5.6344	-1.3107 C
29 H29	-2.8757	5.2305	-1.9014 H
30 H30	-2.3742	5.8183	-0.2866 H
31 H31	-1.7519	6.5833	-1.7806 H
32 C32	-1.2158	4.8037	0.4847 C
33 H33	-0.2018	5.2232	0.6277 H
34 O34	-1.3598	3.6999	-0.0528 O
35 C35	-2.3457	5.6613	0.9817 C
36 H36	-2.3284	6.6374	0.4786 H
37 H37	-3.3051	5.1721	0.8009 H
38 H38	-2.2274	5.8564	2.0559 H
39 C39	-0.0172	3.8629	2.3828 C
40 H40	-0.2591	3.0778	3.1242 H
41 O41	-0.4530	3.7810	1.2289 O
42 C42	0.8489	4.9830	2.8871 C
43 H43	1.8037	4.5852	3.2562 H
44 H44	1.0361	5.7088	2.0929 H
45 H45	0.3640	5.4821	3.7366 H
46 C46	0.0375	3.0067	2.9880 C
47 H47	0.3942	3.7930	3.6801 H
48 O48	-0.2141	3.2853	1.8103 O
49 C49	-0.1051	1.6353	3.5865 C
50 H50	-0.8075	1.6628	4.4303 H
51 H51	-0.4603	0.9258	2.8362 H
52 H52	0.8592	1.2964	3.9879 H
53 C53	-1.5837	-2.3808	2.5675 C
54 H54	-1.5639	-3.3544	2.0418 H
55 O55	-0.5493	-1.9259	3.0684 O
56 C56	-2.9219	-1.6979	2.6124 C
57 H57	-3.6593	-2.3444	3.1066 H
58 H58	-2.8489	-0.7486	3.1473 H
59 H59	-3.2893	-1.5198	1.5930 H
60 C60	1.0925	5.0204	0.3677 C
61 H61	0.1974	5.4418	-0.1280 H
62 O62	1.4116	3.8421	0.1734 O
63 C63	1.8465	5.9701	1.2559 C
64 H64	1.1882	6.3479	2.0496 H
65 H65	2.7105	5.4725	1.7014 H
66 H66	2.1800	6.8427	0.6787 H
67 C67	-4.5587	2.5906	0.6954 C
68 H68	-5.0729	2.2826	-0.2348 H
69 O69	-4.5664	3.7765	1.0441 O
70 C70	-3.8834	1.4848	1.4570 C
71 H71	-3.1330	0.9934	0.8234 H
72 H72	-3.4042	1.8772	2.3564 H
73 H73	-4.6161	0.7155	1.7349 H
74 C74	-1.9846	-4.1280	-0.3711 C
75 H75	-1.8986	-3.0332	-0.2349 H
76 O76	-0.9769	-4.8043	-0.6061 O
77 C77	-3.3744	-4.6871	-0.2492 C
78 H78	-4.0361	-4.2187	-0.9901 H
79 H79	-3.3656	-5.7691	-0.3970 H
80 H80	-3.7902	-4.4531	0.7398 H
81 C81	-2.5482	-4.0680	-0.7878 C
82 H82	-3.5246	-3.5528	-0.8640 H
83 O83	-1.6009	-3.5188	-0.2143 O
84 C84	-2.4864	-5.4316	-1.4168 C
85 H85	-2.7320	-5.3661	-2.4852 H
86 H86	-1.4911	-5.8641	-1.2949 H
87 H87	-3.2346	-6.0926	-0.9596 H
88 C88	4.6779	-4.2822	0.7226 C
89 H89	4.0359	-5.1490	0.9696 H
90 O90	4.5484	-3.2192	1.3402 O
91 C91	5.6731	-4.5087	-0.3807 C
92 H92	5.1537	-4.7967	-1.3045 H
93 H93	6.2611	-3.6054	-0.5566 H
94 H94	6.3421	-5.3399	-0.1210 H
95 C95	-3.0810	2.9398	2.4325 C
96 H96	-3.1258	3.8291	1.7754 H
97 O97	-2.7549	3.0615	3.6186 O
98 C98	-3.4366	1.6343	1.7781 C
99 H99	-2.7650	1.4413	0.9309 H
100 H100	-3.3661	0.8149	2.4965 H
101 H101	-4.4553	1.6813	1.3706 H
102 C102	0.4563	-5.1599	1.2085 C
103 H103	0.7165	-5.0780	0.1361 H
104 O104	0.6244	-4.1949	1.9625 O
105 C105	-0.0936	-6.4905	1.6402 C
106 H106	0.6312	-7.2867	1.4242 H
107 H107	-0.3218	-6.4816	2.7081 H
108 H108	-1.0024	-6.7262	1.0706 H
109 C109	0.1463	-5.1085	1.5727 C
110 H110	-0.9129	-4.9202	1.3134 H
111 O111	0.7997	-4.2480	2.1733 O
112 C112	0.6883	-6.4439	1.1463 C
113 H113	0.5996	-6.5572	0.0576 H
114 H114	1.7349	-6.5437	1.4416 H
115 H115	0.0986	-7.2525	1.5981 H
116 C116	4.4638	-4.4823	-0.7968 C
117 H117	5.0724	-3.5662	-0.6743 H
118 O118	3.4114	-4.6165	-0.1625 O
119 C119	5.0115	-5.4979	-1.7600 C
120 H120	6.0128	-5.8180	-1.4423 H
121 H121	4.3502	-6.3649	-1.8183 H
122 H122	5.1231	-5.0510	-2.7568 H
123 C123	-5.2902	-0.3013	-1.7191 C
124 H124	-5.9212	-0.6874	-0.8961 H
125 O125	-5.8019	0.3398	-2.6439 O
126 C126	-3.8243	-0.6150	-1.6111 C
127 H127	-3.6725	-1.7021	-1.5734 H
128 H128	-3.2804	-0.1978	-2.4612 H
129 H129	-3.4185	-0.2058	-0.6764 H
130 C130	-3.4752	1.3974	-3.4497 C
131 H131	-3.8275	0.9288	-4.3882 H
132 O132	-3.2030	2.6029	-3.4230 O
133 C133	-3.3645	0.4744	-2.2686 C
134 H134	-2.6732	-0.3481	-2.4957 H
135 H135	-3.0116	1.0185	-1.3900 H
136 H136	-4.3398	0.0182	-2.0532 H
137 C137	-4.2227	-2.1256	-3.3862 C
138 H138	-4.1535	-1.2690	-4.0833 H
139 O139	-4.5625	-3.2384	-3.8036 O
140 C140	-3.8810	-1.8226	-1.9542 C
141 H141	-4.5443	-1.0384	-1.5656 H
142 H142	-3.9754	-2.7208	-1.3403 H
143 H143	-2.8563	-1.4340	-1.8847 H
144 C144	-4.7837	-2.5381	0.4068 C
145 H145	-5.2973	-2.3515	-0.5555 H
146 O146	-5.3914	-3.0755	1.3395 O
147 C147	-3.3480	-2.0979	0.4690 C
148 H148	-3.2745	-1.0204	0.2698 H
149 H149	-2.9222	-2.3197	1.4498 H
150 H150	-2.7635	-2.6047	-0.3103 H
151 C151	-1.1634	-4.5000	-5.9390 C
152 H152	-1.0296	-4.7802	-7.0011 H
153 O153	-0.8381	-3.3727	-5.5498 O
154 C154	-1.7494	-5.5675	-5.0580 C
155 H155	-1.1137	-6.4628	-5.0759 H
156 H156	-1.8457	-5.2061	-4.0320 H
157 H157	-2.7346	-5.8707	-5.4365 H
158 C158	-1.5562	-4.0625	-6.2989 C
159 H159	-0.9625	-4.6560	-7.0199 H
160 O160	-0.9905	-3.2853	-5.5218 O
161 C161	-3.0424	-4.2805	-6.3516 C
162 H162	-3.2758	-5.3375	-6.1661 H
163 H163	-3.5467	-3.6576	-5.6098 H
164 H164	-3.4236	-4.0430	-7.3536 H
165 C165	1.5601	-4.7128	-5.2562 C
166 H166	2.5284	-4.1995	-5.4097 H
167 O167	0.5404	-4.0550	-5.0210 O
168 C168	1.6007	-6.2120	-5.3561 C
169 H169	2.3014	-6.6208	-4.6158 H
170 H170	0.6065	-6.6330	-5.1922 H
171 H171	1.9715	-6.5147	-6.3443 H
172 C172	2.1913	-2.4204	-7.0404 C
173 H173	2.9964	-1.8058	-6.5947 H
174 O174	1.0161	-2.2438	-6.7000 O
175 C175	2.6402	-3.4402	-8.0491 C
176 H176	3.3573	-4.1343	-7.5909 H
177 H177	1.7846	-3.9984	-8.4352 H
178 H178	3.1632	-2.9460	-8.8786 H
179 C179	-0.6970	-1.7566	-6.4545 C
180 H180	-1.5988	-2.0744	-5.8975 H
181 O181	0.4235	-2.1181	-6.0779 O
182 C182	-0.9514	-0.8865	-7.6534 C
183 H183	-1.4805	0.0272	-7.3514 H
184 H184	-0.0104	-0.6218	-8.1403 H
185 H185	-1.6024	-1.4083	-8.3673 H
186 C186	3.0548	4.1895	-0.2129 C
187 H187	2.5281	4.5746	-1.1067 H
188 O188	2.6941	4.5378	0.9170 O
189 C189	4.1943	3.2493	-0.4895 C
190 H190	4.9475	3.7434	-1.1177 H
191 H191	4.6541	2.9205	0.4449 H
192 H192	3.8359	2.3767	-1.0516 H
193 C193	-2.2311	1.0070	-3.4256 C
194 H194	-2.2760	-0.0950	-3.3354 H
195 O195	-1.8138	1.6895	-2.4833 O
196 C196	-2.7026	1.5675	-4.7381 C
197 H197	-3.7443	1.2727	-4.9222 H
198 H198	-2.6236	2.6567	-4.7391 H
199 H199	-2.1058	1.1534	-5.5617 H
200 C200	4.1683	2.2711	-5.6384 C
201 H201	5.1694	1.8091	-5.7332 H
202 O202	3.6004	2.7297	-6.6360 O
203 C203	3.5930	2.2873	-4.2499 C
204 H204	4.2628	2.8306	-3.5700 H
205 H205	2.6081	2.7590	-4.2496 H
206 H206	3.5117	1.2629	-3.8629 H
207 C207	-3.6364	-3.7864	-1.3058 C
208 H208	-4.5778	-3.2372	-1.4972 H
209 O209	-3.4951	-4.9398	-1.7274 O
210 C210	-2.5971	-3.0339	-0.5231 C
211 H211	-3.0009	-2.7390	0.4546 H
212 H212	-1.7055	-3.6486	-0.3819 H
213 H213	-2.3273	-2.1074	-1.0471 H
214 C214	6.7335	-3.7662	-3.9843 C
215 H215	7.3262	-3.5493	-3.0754 H
216 O216	6.6838	-4.9175	-4.4316 O
217 C217	6.0292	-2.5863	-4.5932 C
218 H218	6.7574	-1.8098	-4.8630 H
219 H219	5.4712	-2.8907	-5.4813 H
220 H220	5.3435	-2.1375	-3.8624 H
221 C221	6.7427	-0.6036	-2.2379 C
222 H222	6.7477	0.4217	-1.8218 H
223 O223	5.6900	-1.0969	-2.6579 O
224 C224	8.0720	-1.3051	-2.2436 C
225 H225	8.4660	-1.3759	-1.2210 H
226 H226	7.9743	-2.3060	-2.6694 H
227 H227	8.8019	-0.7263	-2.8251 H
@<TRIPOS>BOND
1 1 2 2
2 1 3 1
3 1 16 1
4 3 4 1
5 5 7 1
6 5 11 1
7 5 16 1
8 6 7 1
9 6 17 1
10 6 18 1
11 6 19 1
12 7 20 1
13 7 21 1
14 8 9 1
15 8 10 1
16 8 11 2
17 11 12 1
18 12 13 1
19 12 14 1
20 12 15 1
21 16 17 1
22 16 22 1
23 17 23 1
24 17 24 1
25 25 26 1
26 25 27 2
27 25 28 1
28 28 29 1
29 28 30 1
30 28 31 1
31 32 33 1
32 32 34 2
33 32 35 1
34 35 36 1
35 35 37 1
36 35 38 1
37 39 40 1
38 39 41 2
39 39 42 1
40 42 43 1
41 42 44 1
42 42 45 1
43 46 47 1
44 46 48 2
45 46 49 1
46 49 50 1
47 49 51 1
48 49 52 1
49 53 54 1
50 53 55 2
51 53 56 1
52 56 57 1
53 56 58 1
54 56 59 1
55 60 61 1
56 60 62 2
57 60 63 1
58 63 64 1
59 63 65 1
60 63 66 1
61 67 68 1
62 67 69 2
63 67 70 1
64 70 71 1
65 70 72 1
66 70 73 1
67 74 75 1
68 74 76 2
69 74 77 1
70 77 78 1
71 77 79 1
72 77 80 1
73 81 82 1
74 81 83 2
75 81 84 1
76 84 85 1
77 84 86 1
78 84 87 1
79 88 89 1
80 88 90 2
81 88 91 1
82 91 92 1
83 91 93 1
84 91 94 1
85 95 96 1
86 95 97 2
87 95 98 1
88 98 99 1
89 98 100 1
90 98 101 1
91 102 103 1
92 102 104 2
93 102 105 1
94 105 106 1
95 105 107 1
96 105 108 1
97 109 110 1
98 109 111 2
99 109 112 1
100 112 113 1
101 112 114 1
102 112 115 1
103 116 117 1
104 116 118 2
105 116 119 1
106 119 120 1
107 119 121 1
108 119 122 1
109 123 124 1
110 123 125 2
111 123 126 1
112 126 127 1
113 126 128 1
114 126 129 1
115 130 131 1
116 130 132 2
117 130 133 1
118 133 134 1
119 133 135 1
120 133 136 1
121 137 138 1
122 137 139 2
123 137 140 1
124 140 141 1
125 140 142 1
126 140 143 1
127 144 145 1
128 144 146 2
129 144 147 1
130 147 148 1
131 147 149 1
132 147 150 1
133 151 152 1
134 151 153 2
135 151 154 1
136 154 155 1
137 154 156 1
138 154 157 1
139 158 159 1
140 158 160 2
141 158 161 1
142 161 162 1
143 161 163 1
144 161 164 1
145 165 166 1
146 165 167 2
147 165 168 1
148 168 169 1
149 168 170 1
150 168 171 1
151 172 173 1
152 172 174 2
153 172 175 1
154 175 176 1
155 175 177 1
156 175 178 1
157 179 180 1
158 179 181 2
159 179 182 1
160 182 183 1
161 182 184 1
162 182 185 1
163 186 187 1
164 186 188 2
165 186 189 1
166 189 190 1
167 189 191 1
168 189 192 1
169 193 194 1
170 193 195 2
171 193 196 1
172 196 197 1
173 196 198 1
174 196 199 1
175 200 201 1
176 200 202 2
177 200 203 1
178 203 204 1
179 203 205 1
180 203 206 1
181 207 208 1
182 207 209 2
183 207 210 1
184 210 211 1
185 210 212 1
186 210 213 1
187 214 215 1
188 214 216 2
189 214 217 1
190 217 218 1
191 217 219 1
192 217 220 1
193 221 222 1
194 221 223 2
195 221 224 1
196 224 225 1
197 224 226 1
198 224 227 1
