@<TRIPOS>MOLECULE
Molecule Name
38 36
SMALL
NO_CHARGES

@<TRIPOS>ATOM
1 C1	0.0000	0.0000	0.0000 C
2 O2	-1.2245	0.0000	0.0000 O
3 O3	0.6872	1.2062	0.0000 O
4 H4	1.6592	1.0935	0.0238 H
5 N5	0.4452	-2.2653	0.9576 N
6 C6	-0.3140	-2.8085	3.1867 C
7 H7	-0.9656	-3.6059	2.8526 H
8 H8	-0.2634	-2.6373	4.2544 H
9 C9	0.4016	-2.0356	2.3397 C
10 C10	1.2664	-0.9022	2.8506 C
11 H11	0.9403	0.0764	2.4768 H
12 H12	1.2219	-0.8631	3.9408 H
13 H13	2.3169	-1.0390	2.5601 H
14 C14	0.5091	-3.4918	-1.0438 C
15 C15	-0.1554	-3.4560	0.3399 C
16 C16	0.8630	-1.2735	-0.0372 C
17 C17	0.6524	-1.9982	-1.4070 C
18 H18	1.4932	-3.9689	-0.9726 H
19 H19	-0.0822	-4.0386	-1.7840 H
20 H20	0.0759	-4.3383	0.9458 H
21 H21	-1.2506	-3.3699	0.2650 H
22 H22	1.9214	-1.0044	0.1040 H
23 H23	-0.2748	-1.6364	-1.8629 H
24 H24	1.4746	-1.7997	-2.1001 H
25 C25	3.6330	3.6606	0.6486 C
26 H26	3.0814	3.8824	1.5819 H
27 O27	3.2731	2.7269	-0.0772 O
28 C28	4.8039	4.5582	0.3613 C
29 H29	5.5302	4.5061	1.1833 H
30 H30	5.2870	4.2687	-0.5743 H
31 H31	4.4720	5.6030	0.2974 H
32 C32	3.7709	2.4604	0.7739 C
33 H33	3.0528	2.9485	0.0878 H
34 O34	3.4182	1.4882	1.4510 O
35 C35	5.1479	3.0622	0.8028 C
36 H36	5.0920	4.1191	1.0959 H
37 H37	5.7872	2.5204	1.5031 H
38 H38	5.5931	3.0347	-0.2005 H
@<TRIPOS>BOND
1 1 2 2
2 1 3 1
3 1 16 1
4 3 4 1
5 5 9 1
6 5 15 1
7 5 16 1
8 6 7 1
9 6 8 1
10 6 9 2
11 9 10 1
12 10 11 1
13 10 12 1
14 10 13 1
15 14 15 1
16 14 17 1
17 14 18 1
18 14 19 1
19 15 20 1
20 15 21 1
21 16 17 1
22 16 22 1
23 17 23 1
24 17 24 1
25 25 26 1
26 25 27 2
27 25 28 1
28 28 29 1
29 28 30 1
30 28 31 1
31 32 33 1
32 32 34 2
33 32 35 1
34 35 36 1
35 35 37 1
36 35 38 1
