@<TRIPOS>MOLECULE
Molecule Name
775 725
SMALL
NO_CHARGES

@<TRIPOS>ATOM
1 C1	0.0000	0.0000	0.0000 C
2 H2	-2.0873	0.0000	0.0000 H
3 C3	-1.1901	0.6157	0.0000 C
4 H4	0.9390	0.5417	0.0413 H
5 H5	0.0556	-1.0841	-0.0195 H
6 C6	-1.4117	2.0507	0.0554 C
7 C7	-0.5766	2.9601	-0.4815 C
8 H8	0.3012	2.6197	-1.0226 H
9 O9	-2.5466	2.4028	0.7636 O
10 C10	-3.6926	2.4870	-0.0839 C
11 H11	-4.5366	2.8220	0.5263 H
12 H12	-3.9446	1.5072	-0.5025 H
13 H13	-3.5464	3.2132	-0.8901 H
14 S14	-0.8128	4.6770	-0.3574 S
15 C15	0.7310	5.2257	-1.0592 C
16 C16	0.8043	5.5724	-2.4119 C
17 C17	2.0129	6.0046	-2.9620 C
18 H18	-0.0774	5.5097	-3.0449 H
19 C19	3.1509	6.0962	-2.1614 C
20 H20	2.0650	6.2729	-4.0140 H
21 C21	1.8737	5.3271	-0.2591 C
22 C22	3.0817	5.7592	-0.8102 C
23 H23	4.0909	6.4353	-2.5895 H
24 H24	3.9667	5.8364	-0.1839 H
25 H25	1.8297	5.0723	0.7972 H
26 C26	2.6374	2.3105	7.1528 C
27 C27	1.5592	2.2020	6.3663 C
28 H28	2.9673	1.4759	7.7619 H
29 H29	3.2123	3.2316	7.2056 H
30 H30	0.9858	1.2848	6.3132 H
31 C31	1.1090	3.3396	5.5359 C
32 O32	1.6469	4.4328	5.4887 O
33 O33	0.0049	2.9443	4.8548 O
34 C34	-0.5700	3.9307	3.9858 C
35 C35	-1.5457	4.8017	4.7549 C
36 H36	-1.1027	3.3902	3.1965 H
37 H37	0.2050	4.5323	3.4969 H
38 H38	-2.3135	4.1867	5.2357 H
39 H39	-2.0336	5.5189	4.0889 H
40 H40	-1.0361	5.3544	5.5505 H
41 C41	1.1197	5.4284	4.4735 C
42 C42	1.3928	6.7375	4.5418 C
43 H43	0.3385	4.9909	5.0856 H
44 H44	1.6682	4.7672	3.8074 H
45 H45	0.8470	7.3969	5.2053 H
46 C46	2.4579	7.3343	3.7078 C
47 O47	3.1573	6.7244	2.9168 O
48 O48	2.5097	8.6602	3.9876 O
49 C49	3.4938	9.4069	3.2578 C
50 C50	4.8278	9.3603	3.9791 C
51 H51	3.1385	10.4414	3.2082 H
52 H52	3.5832	9.0477	2.2261 H
53 H53	4.7222	9.7232	5.0068 H
54 H54	5.5699	9.9750	3.4621 H
55 H55	5.2054	8.3347	4.0408 H
56 C56	2.9358	1.8501	3.1939 C
57 C57	1.7479	1.7272	3.7994 C
58 H58	3.6077	1.0027	3.1108 H
59 H59	3.2624	2.7961	2.7694 H
60 H60	1.4218	0.7852	4.2226 H
61 C61	0.8318	2.8822	3.9131 C
62 O62	1.0566	4.0032	3.4894 O
63 O63	-0.2805	2.4663	4.5682 O
64 C64	-1.2906	3.4661	4.7653 C
65 C65	-1.0178	4.2420	6.0402 C
66 H66	-2.2476	2.9412	4.8518 H
67 H67	-1.3667	4.1329	3.8986 H
68 H68	-0.9461	3.5627	6.8960 H
69 H69	-1.8140	4.9671	6.2308 H
70 H70	-0.0652	4.7775	5.9780 H
71 C71	5.9755	6.0553	-7.7660 C
72 C72	5.2045	7.0570	-8.2077 C
73 H73	6.9395	5.8538	-8.2204 H
74 H74	5.6622	5.4166	-6.9440 H
75 H75	5.5159	7.6936	-9.0266 H
76 C76	3.8902	7.3318	-7.5886 C
77 O77	3.4033	6.7049	-6.6631 O
78 O78	3.3400	8.3890	-8.2358 O
79 C79	2.0514	8.8018	-7.7587 C
80 C80	0.9581	8.0080	-8.4491 C
81 H81	1.9450	9.8639	-8.0031 H
82 H82	1.9826	8.7143	-6.6682 H
83 H83	1.0395	8.1068	-9.5365 H
84 H84	-0.0303	8.3558	-8.1360 H
85 H85	1.0423	6.9412	-8.2190 H
86 C86	-8.2739	2.2878	-3.8408 C
87 C87	-8.6825	3.1890	-2.9387 C
88 H88	-8.8179	2.1434	-4.7680 H
89 H89	-7.3906	1.6766	-3.6740 H
90 H90	-9.5626	3.7982	-3.1040 H
91 C91	-7.9414	3.3860	-1.6746 C
92 O92	-6.9372	2.7778	-1.3453 O
93 O93	-8.5806	4.3489	-0.9649 O
94 C94	-7.9904	4.6766	0.3012 C
95 C95	-8.5167	3.7490	1.3803 C
96 H96	-8.2775	5.7081	0.5305 H
97 H97	-6.8957	4.6514	0.2497 H
98 H98	-9.6103	3.7867	1.4199 H
99 H99	-8.1181	4.0280	2.3597 H
100 H100	-8.2411	2.7100	1.1739 H
101 C101	-3.2273	3.1201	4.2526 C
102 C102	-3.4737	3.0647	5.5675 C
103 H103	-2.6623	2.3365	3.7594 H
104 H104	-3.5828	3.9461	3.6418 H
105 H105	-3.1197	2.2422	6.1767 H
106 C106	-4.2436	4.1328	6.2402 C
107 O107	-4.7054	5.1193	5.6923 O
108 O108	-4.3324	3.8143	7.5555 O
109 C109	-5.0585	4.7473	8.3686 C
110 C110	-4.1342	5.8472	8.8563 C
111 H111	-5.4493	4.1885	9.2252 H
112 H112	-5.9214	5.1577	7.8314 H
113 H113	-3.2789	5.4216	9.3914 H
114 H114	-4.6643	6.5311	9.5250 H
115 H115	-3.7305	6.4222	8.0168 H
116 C116	5.9845	5.0194	3.4209 C
117 C117	6.7061	6.1373	3.5717 C
118 H118	5.9707	4.2583	4.1935 H
119 H119	5.3940	4.8403	2.5259 H
120 H120	7.2947	6.3164	4.4629 H
121 C121	6.7254	7.1749	2.5186 C
122 O122	6.1182	7.1176	1.4628 O
123 O123	7.5333	8.1791	2.9408 O
124 C124	7.6667	9.2852	2.0366 C
125 C125	8.7796	9.0166	1.0409 C
126 H126	7.9175	10.1635	2.6405 H
127 H127	6.7194	9.5030	1.5300 H
128 H128	9.7184	8.8024	1.5621 H
129 H129	8.9289	9.8784	0.3844 H
130 H130	8.5515	8.1422	0.4232 H
131 C131	-2.4592	-5.1338	-1.8580 C
132 C132	-3.4400	-4.9179	-0.9724 C
133 H133	-2.5090	-5.9670	-2.5506 H
134 H134	-1.5880	-4.4858	-1.9108 H
135 H135	-4.3081	-5.5632	-0.9191 H
136 C136	-3.3722	-3.7823	-0.0279 C
137 O137	-2.4628	-2.9726	0.0351 O
138 O138	-4.4889	-3.8153	0.7409 O
139 C139	-4.5947	-2.7722	1.7204 C
140 C140	-3.8890	-3.1814	2.9997 C
141 H141	-5.6616	-2.6269	1.9191 H
142 H142	-4.2070	-1.8220	1.3350 H
143 H143	-4.2882	-4.1305	3.3722 H
144 H144	-4.0141	-2.4180	3.7728 H
145 H145	-2.8187	-3.3318	2.8271 H
146 C146	-2.1210	-3.2233	3.3991 C
147 C147	-2.8713	-4.0042	2.6117 C
148 H148	-2.1943	-3.2889	4.4793 H
149 H149	-1.4196	-2.5040	2.9841 H
150 H150	-3.5704	-4.7211	3.0243 H
151 C151	-2.7718	-3.9150	1.1392 C
152 O152	-2.0352	-3.1595	0.5280 O
153 O153	-3.6405	-4.8118	0.6098 O
154 C154	-3.6740	-4.8662	-0.8236 C
155 C155	-4.6481	-3.8364	-1.3644 C
156 H156	-4.0114	-5.8712	-1.0977 H
157 H157	-2.6734	-4.7350	-1.2515 H
158 H158	-5.6422	-3.9816	-0.9290 H
159 H159	-4.7253	-3.9096	-2.4529 H
160 H160	-4.3316	-2.8214	-1.1040 H
161 C161	-0.1948	9.8428	-5.3915 C
162 C162	-0.2827	9.1025	-6.5038 C
163 H163	-1.0215	10.4690	-5.0738 H
164 H164	0.7012	9.8399	-4.7760 H
165 H165	-1.1749	9.1049	-7.1177 H
166 C166	0.8441	8.2489	-6.9373 C
167 O167	1.9100	8.1412	-6.3552 O
168 O168	0.4747	7.6253	-8.0836 O
169 C169	1.4547	6.7434	-8.6496 C
170 C170	2.3944	7.5168	-9.5556 C
171 H171	0.9112	5.9953	-9.2360 H
172 H172	2.0039	6.2036	-7.8695 H
173 H173	1.8312	8.0487	-10.3295 H
174 H174	3.1089	6.8441	-10.0383 H
175 H175	2.9514	8.2716	-8.9915 H
176 C176	-1.3371	8.7941	2.9483 C
177 C177	-1.0325	7.5196	3.2235 C
178 H178	-0.5593	9.5451	2.8605 H
179 H179	-2.3659	9.1147	2.8051 H
180 H180	-0.0078	7.1995	3.3665 H
181 C181	-2.0924	6.4958	3.3435 C
182 O182	-3.2871	6.7007	3.2114 O
183 O183	-1.4949	5.3116	3.6263 O
184 C184	-2.3812	4.1929	3.7735 C
185 C185	-2.8816	4.1055	5.2031 C
186 H186	-1.8052	3.2942	3.5297 H
187 H187	-3.2121	4.2455	3.0604 H
188 H188	-2.0406	4.0522	5.9023 H
189 H189	-3.5113	3.2219	5.3403 H
190 H190	-3.4627	4.9936	5.4711 H
191 C191	-3.0366	1.4939	4.4107 C
192 C192	-3.7040	2.4275	5.1006 C
193 H193	-2.2825	1.7735	3.6829 H
194 H194	-3.2278	0.4338	4.5568 H
195 H195	-3.5142	3.4838	4.9555 H
196 C196	-4.7322	2.0467	6.0926 C
197 O197	-5.0577	0.9038	6.3655 O
198 O198	-5.2357	3.1872	6.6263 O
199 C199	-6.2528	3.0059	7.6220 C
200 C200	-7.6157	2.8950	6.9646 C
201 H201	-6.2274	3.8884	8.2696 H
202 H202	-6.0411	2.1363	8.2550 H
203 H203	-7.8125	3.7709	6.3377 H
204 H204	-8.4044	2.8158	7.7181 H
205 H205	-7.6668	2.0180	6.3117 H
206 C206	-7.7690	2.9206	-3.9441 C
207 C207	-7.0314	2.0194	-4.6048 C
208 H208	-8.4327	3.5935	-4.4762 H
209 H209	-7.7266	3.0062	-2.8612 H
210 H210	-7.0731	1.9336	-5.6836 H
211 C211	-6.1265	1.1020	-3.8798 C
212 O212	-5.9699	1.0777	-2.6708 O
213 O213	-5.5143	0.3127	-4.7970 O
214 C214	-4.5947	-0.6519	-4.2654 C
215 C215	-3.2187	-0.0325	-4.1078 C
216 H216	-4.5465	-1.4774	-4.9832 H
217 H217	-4.9572	-1.0695	-3.3189 H
218 H218	-2.8705	0.3783	-5.0612 H
219 H219	-2.4964	-0.7759	-3.7589 H
220 H220	-3.2403	0.7961	-3.3929 H
221 C221	-0.3106	-5.8715	-2.3177 C
222 C222	-0.8526	-5.9203	-1.0943 C
223 H223	-0.6015	-6.5825	-3.0834 H
224 H224	0.4329	-5.1233	-2.5807 H
225 H225	-1.5933	-6.6655	-0.8315 H
226 C226	-0.4562	-4.9514	-0.0502 C
227 O227	0.3622	-4.0589	-0.1926 O
228 O228	-1.1587	-5.2416	1.0729 O
229 C229	-0.9019	-4.3899	2.1987 C
230 C230	0.2824	-4.9113	2.9908 C
231 H231	-1.7999	-4.4079	2.8249 H
232 H232	-0.7487	-3.3505	1.8860 H
233 H233	0.1135	-5.9490	3.2966 H
234 H234	0.4498	-4.3028	3.8839 H
235 H235	1.1945	-4.9022	2.3857 H
236 C236	-3.4996	7.4570	-0.6103 C
237 C237	-4.7552	7.4493	-0.1452 C
238 H238	-2.8003	8.2297	-0.3098 H
239 H239	-3.1437	6.6948	-1.2989 H
240 H240	-5.1107	8.2083	0.5407 H
241 C241	-5.7089	6.3962	-0.5548 C
242 O242	-5.4593	5.4788	-1.3180 O
243 O243	-6.8900	6.6430	0.0643 O
244 C244	-7.9412	5.7077	-0.2166 C
245 C245	-8.6890	6.1211	-1.4704 C
246 H246	-8.6223	5.7250	0.6405 H
247 H247	-7.5543	4.6854	-0.2993 H
248 H248	-9.0700	7.1428	-1.3715 H
249 H249	-9.5295	5.4476	-1.6604 H
250 H250	-8.0285	6.1105	-2.3432 H
251 C251	-1.0715	3.7290	-8.4780 C
252 C252	-0.2144	2.8367	-7.9660 C
253 H253	-1.5194	3.5732	-9.4535 H
254 H254	-1.3440	4.6312	-7.9364 H
255 H255	0.0577	1.9377	-8.5051 H
256 C256	0.3965	3.0488	-6.6364 C
257 O257	0.1913	4.0083	-5.9125 O
258 O258	1.2140	1.9968	-6.3831 O
259 C259	1.8933	2.0334	-5.1198 C
260 C260	3.1895	2.8121	-5.2443 C
261 H261	2.1121	0.9965	-4.8441 H
262 H262	1.2513	2.4467	-4.3333 H
263 H263	3.8196	2.3864	-6.0322 H
264 H264	3.7437	2.7959	-4.3017 H
265 H265	2.9970	3.8541	-5.5186 H
266 C266	-6.3794	-2.2409	0.9514 C
267 C267	-5.9204	-2.6781	-0.2280 C
268 H268	-6.5192	-2.9248	1.7816 H
269 H269	-6.6250	-1.1944	1.1134 H
270 H270	-5.6757	-3.7205	-0.3903 H
271 C271	-5.7299	-1.7462	-1.3600 C
272 O272	-5.9613	-0.5493	-1.3329 O
273 O273	-5.2628	-2.4624	-2.4126 O
274 C274	-5.0134	-1.7102	-3.6087 C
275 C275	-6.2799	-1.6095	-4.4379 C
276 H276	-4.2465	-2.2512	-4.1727 H
277 H277	-4.6047	-0.7193	-3.3791 H
278 H278	-6.6745	-2.6065	-4.6599 H
279 H279	-6.0864	-1.0886	-5.3799 H
280 H280	-7.0630	-1.0706	-3.8952 H
281 C281	-4.2419	-1.4024	1.5385 C
282 C282	-3.5076	-1.1469	2.6286 C
283 H283	-4.0681	-2.2955	0.9480 H
284 H284	-5.0297	-0.7280	1.2127 H
285 H285	-2.7225	-1.8182	2.9538 H
286 C286	-3.7440	0.0706	3.4336 C
287 O287	-4.5869	0.9190	3.1958 O
288 O288	-2.8605	0.0654	4.4625 O
289 C289	-2.9505	1.1823	5.3587 C
290 C290	-2.1088	2.3354	4.8449 C
291 H291	-2.5638	0.8475	6.3269 H
292 H292	-3.9922	1.4851	5.5157 H
293 H293	-1.0718	2.0175	4.6948 H
294 H294	-2.1234	3.1707	5.5507 H
295 H295	-2.4767	2.6895	3.8767 H
296 C296	4.7507	8.6918	1.5084 C
297 C297	5.0707	7.9306	2.5625 C
298 H298	4.0720	9.5312	1.6144 H
299 H299	5.1577	8.4942	0.5200 H
300 H300	4.6655	8.1267	3.5475 H
301 C301	5.9956	6.7862	2.4183 C
302 O302	6.5299	6.4397	1.3785 O
303 O303	6.1299	6.2056	3.6365 O
304 C304	7.0050	5.0696	3.6856 C
305 C305	6.2417	3.8050	3.3387 C
306 H306	7.3834	5.0013	4.7108 H
307 H307	7.8734	5.2061	3.0307 H
308 H308	5.3792	3.6824	4.0019 H
309 H309	6.8857	2.9259	3.4306 H
310 H310	5.8535	3.8484	2.3161 H
311 C311	-9.4235	-1.6602	1.7251 C
312 C312	-8.3062	-0.9468	1.5362 C
313 H313	-10.1244	-1.8208	0.9130 H
314 H314	-9.6621	-2.0978	2.6911 H
315 H315	-8.0679	-0.5103	0.5741 H
316 C316	-7.3507	-0.7274	2.6429 C
317 O317	-7.4797	-1.1517	3.7787 O
318 O318	-6.3275	0.0233	2.1646 O
319 C319	-5.2939	0.3321	3.1107 C
320 C320	-5.6497	1.5881	3.8838 C
321 H321	-4.3759	0.5002	2.5380 H
322 H322	-5.1033	-0.5122	3.7833 H
323 H323	-5.8355	2.4217	3.1986 H
324 H324	-4.8413	1.8655	4.5662 H
325 H325	-6.5651	1.4448	4.4665 H
326 C326	-6.0401	0.7365	3.7877 C
327 C327	-6.3436	-0.5223	3.4469 C
328 H328	-6.2513	1.1089	4.7843 H
329 H329	-5.5760	1.4205	3.0818 H
330 H330	-6.8062	-1.2043	4.1496 H
331 C331	-6.0560	-1.0302	2.0884 C
332 O332	-5.5416	-0.3856	1.1903 O
333 O333	-6.4686	-2.3209	2.0323 O
334 C334	-6.2605	-2.9812	0.7756 C
335 C335	-7.4352	-2.7273	-0.1504 C
336 H336	-6.1830	-4.0529	0.9863 H
337 H337	-5.3139	-2.6746	0.3156 H
338 H338	-8.3720	-3.0399	0.3224 H
339 H339	-7.3140	-3.2746	-1.0896 H
340 H340	-7.5333	-1.6611	-0.3775 H
341 C341	-2.1232	1.8393	4.5943 C
342 C342	-1.6909	1.0997	5.6233 C
343 H343	-2.5109	2.8398	4.7529 H
344 H344	-2.0997	1.4635	3.5745 H
345 H345	-1.7141	1.4733	6.6396 H
346 C346	-1.1626	-0.2643	5.4075 C
347 O347	-1.0739	-0.8218	4.3267 O
348 O348	-0.8068	-0.7671	6.6157 O
349 C349	-0.2631	-2.0948	6.5956 C
350 C350	-1.3796	-3.1193	6.6709 C
351 H351	0.3827	-2.1892	7.4747 H
352 H352	0.3685	-2.2541	5.7140 H
353 H353	-1.9999	-2.9477	7.5567 H
354 H354	-0.9729	-4.1335	6.7158 H
355 H355	-2.0397	-3.0458	5.8008 H
356 C356	-4.1565	7.1425	-3.2918 C
357 C357	-4.9482	6.4945	-4.1556 C
358 H358	-4.1902	8.2236	-3.2103 H
359 H359	-3.4597	6.6099	-2.6495 H
360 H360	-5.6425	7.0244	-4.7960 H
361 C361	-4.9024	5.0209	-4.2673 C
362 O362	-4.1757	4.2881	-3.6179 O
363 O363	-5.8008	4.6485	-5.2125 O
364 C364	-5.8956	3.2370	-5.4516 C
365 C365	-4.8672	2.8101	-6.4822 C
366 H366	-6.9028	3.0445	-5.8355 H
367 H367	-5.7916	2.6667	-4.5213 H
368 H368	-4.9851	3.3874	-7.4051 H
369 H369	-4.9702	1.7466	-6.7153 H
370 H370	-3.8500	2.9916	-6.1208 H
371 C371	4.1093	6.3016	3.5759 C
372 C372	2.8016	6.0314	3.6739 C
373 H373	4.4541	7.2196	3.1123 H
374 H374	4.8618	5.6148	3.9551 H
375 H375	2.0513	6.7151	3.2963 H
376 C376	2.3312	4.7801	4.3057 C
377 O377	3.0509	3.9148	4.7747 O
378 O378	0.9758	4.7771	4.2610 O
379 C379	0.3419	3.6276	4.8403 C
380 C380	0.2241	2.5196	3.8106 C
381 H381	-0.6575	3.9406	5.1599 H
382 H382	0.8742	3.2874	5.7362 H
383 H383	-0.3106	2.8745	2.9234 H
384 H384	-0.3106	1.6603	4.2250 H
385 H385	1.2120	2.1880	3.4756 H
386 C386	3.5599	4.2240	3.2380 C
387 C387	3.6218	5.2459	4.1010 C
388 H388	2.8486	3.4178	3.3812 H
389 H389	4.2157	4.1700	2.3727 H
390 H390	2.9690	5.3004	4.9633 H
391 C391	4.5915	6.3450	3.9062 C
392 O392	5.3901	6.4246	2.9882 O
393 O393	4.4290	7.2265	4.9240 O
394 C394	5.2936	8.3711	4.8928 C
395 C395	6.6074	8.0542	5.5823 C
396 H396	4.7802	9.1746	5.4310 H
397 H397	5.4538	8.7225	3.8669 H
398 H398	6.4306	7.7063	6.6054 H
399 H399	7.2507	8.9380	5.6161 H
400 H400	7.1413	7.2531	5.0614 H
401 C401	4.8717	2.1045	1.5980 C
402 C402	5.5836	1.3155	0.7835 C
403 H403	5.3245	2.5478	2.4783 H
404 H404	3.8248	2.3244	1.4047 H
405 H405	6.6266	1.0958	0.9756 H
406 C406	4.9666	0.7109	-0.4164 C
407 O407	3.8078	0.8625	-0.7642 O
408 O408	5.9143	-0.0317	-1.0405 O
409 C409	5.4885	-0.6939	-2.2400 C
410 C410	4.8745	-2.0404	-1.9053 C
411 H411	6.3801	-0.8398	-2.8587 H
412 H412	4.7959	-0.0696	-2.8163 H
413 H413	5.5785	-2.6520	-1.3316 H
414 H414	4.6003	-2.5789	-2.8168 H
415 H415	3.9790	-1.9211	-1.2872 H
416 C416	-3.8517	-0.5111	-5.1543 C
417 C417	-4.1201	-0.3977	-3.8474 C
418 H418	-3.5950	0.3605	-5.7468 H
419 H419	-3.8823	-1.4730	-5.6597 H
420 H420	-4.0899	0.5603	-3.3432 H
421 C421	-4.4702	-1.5855	-3.0395 C
422 O422	-4.5462	-2.7267	-3.4622 O
423 O423	-4.6898	-1.1714	-1.7670 O
424 C424	-5.0395	-2.2037	-0.8338 C
425 C425	-6.5381	-2.4400	-0.8513 C
426 H426	-4.7336	-1.8552	0.1581 H
427 H427	-4.4855	-3.1279	-1.0350 H
428 H428	-7.0766	-1.5086	-0.6474 H
429 H429	-6.8222	-3.1835	-0.1013 H
430 H430	-6.8691	-2.7907	-1.8339 H
431 C431	-3.7973	1.4984	9.8677 C
432 C432	-3.9547	0.9483	8.6571 C
433 H433	-4.5539	1.3784	10.6355 H
434 H434	-2.9128	2.0788	10.1178 H
435 H435	-4.8357	0.3701	8.4072 H
436 C436	-2.9236	1.1119	7.6101 C
437 O437	-1.8823	1.7330	7.7388 O
438 O438	-3.3503	0.4567	6.5020 O
439 C439	-2.4625	0.5058	5.3760 C
440 C440	-2.7287	1.7522	4.5529 C
441 H441	-2.6636	-0.3845	4.7710 H
442 H442	-1.4142	0.4500	5.6915 H
443 H443	-3.7786	1.7923	4.2445 H
444 H444	-2.0975	1.7693	3.6599 H
445 H445	-2.5333	2.6575	5.1363 H
446 C446	7.3889	5.9340	1.9469 C
447 C447	7.1187	6.4819	3.1384 C
448 H448	8.4103	5.7159	1.6541 H
449 H449	6.5992	5.6920	1.2402 H
450 H450	7.9049	6.7234	3.8430 H
451 C451	5.7266	6.7794	3.5379 C
452 O452	4.7381	6.5671	2.8563 O
453 O453	5.7590	7.3256	4.7788 O
454 C454	4.4824	7.6756	5.3324 C
455 C455	4.0876	9.0739	4.8958 C
456 H456	4.5874	7.6463	6.4220 H
457 H457	3.7155	6.9400	5.0634 H
458 H458	4.8624	9.7964	5.1727 H
459 H459	3.1437	9.3732	5.3600 H
460 H460	3.9750	9.1289	3.8084 H
461 C461	2.6570	7.6568	4.9547 C
462 C462	2.0971	6.6479	4.2753 C
463 H463	2.7656	8.6376	4.5043 H
464 H464	3.0179	7.5263	5.9717 H
465 H465	1.7375	6.7771	3.2620 H
466 C466	1.9491	5.3108	4.8888 C
467 O467	2.3049	5.0102	6.0157 O
468 O468	1.3584	4.4993	3.9769 O
469 C469	1.1298	3.1500	4.4081 C
470 C470	2.3575	2.2995	4.1405 C
471 H471	0.2838	2.7677	3.8276 H
472 H472	0.8385	3.1124	5.4641 H
473 H473	2.6345	2.3464	3.0823 H
474 H474	2.1729	1.2561	4.4113 H
475 H475	3.2183	2.6616	4.7115 H
476 C476	-3.5092	7.2973	-1.9924 C
477 C477	-4.6859	7.6797	-1.4805 C
478 H478	-2.9638	7.9412	-2.6739 H
479 H479	-3.0662	6.3364	-1.7434 H
480 H480	-5.1280	8.6369	-1.7282 H
481 C481	-5.4297	6.8021	-0.5517 C
482 O482	-5.0643	5.6998	-0.1802 O
483 O483	-6.5733	7.4422	-0.2027 O
484 C484	-7.4248	6.7318	0.7077 C
485 C485	-8.3566	5.8105	-0.0570 C
486 H486	-8.0113	7.4818	1.2486 H
487 H487	-6.8402	6.1813	1.4539 H
488 H488	-8.9339	6.3751	-0.7966 H
489 H489	-9.0500	5.3082	0.6234 H
490 H490	-7.7932	5.0495	-0.6062 H
491 C491	7.0469	11.0439	-2.6171 C
492 C492	6.0578	11.3154	-3.4779 C
493 H493	7.8696	11.7371	-2.4791 H
494 H494	7.0569	10.1269	-2.0335 H
495 H495	6.0472	12.2287	-4.0599 H
496 C496	4.9363	10.3706	-3.6665 C
497 O497	4.8085	9.3052	-3.0873 O
498 O498	4.0971	10.9021	-4.5898 O
499 C499	2.9381	10.1139	-4.8964 C
500 C500	3.2594	9.1134	-5.9908 C
501 H501	2.1643	10.8054	-5.2458 H
502 H502	2.5451	9.6171	-4.0018 H
503 H503	3.6489	9.6249	-6.8771 H
504 H504	2.3670	8.5477	-6.2733 H
505 H505	4.0310	8.4089	-5.6648 H
506 C506	0.8464	-3.0536	6.4785 C
507 C507	0.9176	-1.8805	5.8368 C
508 H508	1.6741	-3.7541	6.4498 H
509 H509	-0.0366	-3.3394	7.0445 H
510 H510	1.7969	-1.5952	5.2727 H
511 C511	-0.2104	-0.9255	5.8756 C
512 O512	-1.2632	-1.1033	6.4645 O
513 O513	0.1406	0.1607	5.1433 O
514 C514	-0.8434	1.2027	5.0746 C
515 C515	-1.8081	0.9379	3.9340 C
516 H516	-0.3056	2.1388	4.8918 H
517 H517	-1.3716	1.3163	6.0284 H
518 H518	-1.2657	0.8284	2.9892 H
519 H519	-2.5266	1.7566	3.8358 H
520 H520	-2.3598	0.0062	4.0943 H
521 C521	-3.1291	5.8594	8.3904 C
522 C522	-3.0956	4.7583	7.6292 C
523 H523	-4.0368	6.1497	8.9084 H
524 H524	-2.2542	6.4929	8.5127 H
525 H525	-3.9668	4.1268	7.5067 H
526 C526	-1.8585	4.3624	6.9229 C
527 O527	-0.8014	4.9688	6.9610 O
528 O528	-2.1200	3.2226	6.2360 O
529 C529	-1.0189	2.6864	5.4884 C
530 C530	-0.9629	3.3201	4.1110 C
531 H531	-1.1925	1.6096	5.3911 H
532 H532	-0.0722	2.8122	6.0264 H
533 H533	-1.9144	3.1847	3.5865 H
534 H534	-0.1631	2.8757	3.5119 H
535 H535	-0.7887	4.3985	4.1815 H
536 C536	4.1916	4.3599	3.6861 C
537 C537	4.1057	5.6812	3.4871 C
538 H538	3.4820	3.8468	4.3262 H
539 H539	4.9694	3.7635	3.2160 H
540 H540	3.3312	6.2761	3.9552 H
541 C541	5.0729	6.3810	2.6148 C
542 O542	5.9973	5.8512	2.0218 O
543 O543	4.7449	7.6968	2.6038 O
544 C544	5.5831	8.5350	1.7954 C
545 C545	6.7857	9.0003	2.5949 C
546 H546	4.9806	9.4002	1.5000 H
547 H547	5.8872	8.0252	0.8738 H
548 H548	6.4655	9.5082	3.5105 H
549 H549	7.4003	9.6874	2.0064 H
550 H550	7.4058	8.1520	2.9015 H
551 C551	-0.2344	5.3467	5.5649 C
552 C552	0.5728	6.4053	5.7085 C
553 H553	-0.8909	5.0349	6.3700 H
554 H554	-0.2574	4.7701	4.6436 H
555 H555	0.5963	6.9802	6.6261 H
556 C556	1.4680	6.8306	4.6113 C
557 O557	1.5557	6.2865	3.5236 O
558 O558	2.1607	7.9155	5.0382 O
559 C559	3.0833	8.4708	4.0900 C
560 C560	4.4241	7.7679	4.1903 C
561 H561	3.2031	9.5295	4.3426 H
562 H562	2.6828	8.4267	3.0706 H
563 H563	4.8110	7.8220	5.2132 H
564 H564	5.1522	8.2230	3.5130 H
565 H565	4.3308	6.7062	3.9409 H
566 C566	2.6513	1.2654	7.0067 C
567 C567	1.8318	1.9761	6.2217 C
568 H568	3.7278	1.3340	6.8932 H
569 H569	2.2668	0.6019	7.7771 H
570 H570	2.2141	2.6374	5.4539 H
571 C571	0.3643	1.8827	6.3759 C
572 O572	-0.2147	1.1844	7.1906 O
573 O573	-0.2023	2.7015	5.4552 O
574 C574	-1.6366	2.7409	5.4641 C
575 C575	-2.1965	1.6309	4.5945 C
576 H576	-1.9324	3.7129	5.0557 H
577 H577	-2.0310	2.6878	6.4854 H
578 H578	-1.7945	1.6987	3.5783 H
579 H579	-3.2876	1.6883	4.5471 H
580 H580	-1.9150	0.6472	4.9834 H
581 C581	-0.8010	-2.5086	5.7928 C
582 C582	-0.3223	-1.2591	5.7421 C
583 H583	-0.1300	-3.3596	5.8375 H
584 H584	-1.8695	-2.7086	5.7907 H
585 H585	0.7420	-1.0590	5.7440 H
586 C586	-1.2367	-0.0988	5.6810 C
587 O587	-2.4543	-0.1621	5.6701 O
588 O588	-0.4785	1.0247	5.6361 O
589 C589	-1.2075	2.2592	5.5784 C
590 C590	-1.5339	2.6080	4.1384 C
591 H591	-0.5615	3.0325	6.0069 H
592 H592	-2.1123	2.2176	6.1959 H
593 H593	-0.6206	2.6470	3.5357 H
594 H594	-2.0379	3.5768	4.0787 H
595 H595	-2.1810	1.8491	3.6873 H
596 C596	-5.1087	-2.6477	-3.3780 C
597 C597	-5.2706	-3.0461	-2.1099 C
598 H598	-5.9404	-2.6577	-4.0742 H
599 H599	-4.1459	-2.3043	-3.7476 H
600 H600	-6.2295	-3.3885	-1.7410 H
601 C601	-4.1371	-3.0329	-1.1606 C
602 O602	-3.0013	-2.6773	-1.4255 O
603 O603	-4.5916	-3.4860	0.0341 O
604 C604	-3.6172	-3.5362	1.0861 C
605 C605	-2.8694	-4.8556	1.0451 C
606 H606	-4.1628	-3.4518	2.0317 H
607 H607	-2.9298	-2.6839	1.0344 H
608 H608	-3.5692	-5.6960	1.0991 H
609 H609	-2.1653	-4.9284	1.8788 H
610 H610	-2.3139	-4.9635	0.1082 H
611 C611	-2.3906	0.4444	-4.3328 C
612 C612	-1.4923	-0.4219	-3.8476 C
613 H613	-2.7416	1.2763	-3.7317 H
614 H614	-2.7939	0.3426	-5.3372 H
615 H615	-1.0902	-0.3212	-2.8471 H
616 C616	-1.0137	-1.5561	-4.6666 C
617 O617	-1.3722	-1.8023	-5.8057 O
618 O618	-0.1222	-2.2572	-3.9232 O
619 C619	0.4543	-3.4018	-4.5684 C
620 C620	-0.4323	-4.6169	-4.3700 C
621 H621	1.4282	-3.5766	-4.0996 H
622 H622	0.6391	-3.2097	-5.6317 H
623 H623	-0.6060	-4.7961	-3.3039 H
624 H624	0.0271	-5.5078	-4.8075 H
625 H625	-1.4134	-4.4671	-4.8318 H
626 C626	-1.2769	-0.1903	-3.9657 C
627 C627	-0.7736	-1.4247	-3.8396 C
628 H628	-1.4129	0.4459	-3.0978 H
629 H629	-1.5632	0.2107	-4.9347 H
630 H630	-0.4883	-1.8250	-2.8746 H
631 C631	-0.5883	-2.2923	-5.0224 C
632 O632	-0.8623	-1.9855	-6.1702 O
633 O633	-0.0702	-3.4706	-4.5952 O
634 C634	0.1820	-4.4417	-5.6209 C
635 C635	-1.0665	-5.2631	-5.8831 C
636 H636	0.9812	-5.0941	-5.2541 H
637 H637	0.5496	-3.9672	-6.5381 H
638 H638	-1.4199	-5.7312	-4.9584 H
639 H639	-0.8682	-6.0452	-6.6213 H
640 H640	-1.8813	-4.6324	-6.2524 H
641 C641	0.6361	11.5172	-5.8821 C
642 C642	0.3777	10.5672	-6.7896 C
643 H643	0.4768	12.5649	-6.1133 H
644 H644	1.0110	11.2708	-4.8920 H
645 H645	0.0043	10.8119	-7.7763 H
646 C646	0.5949	9.1390	-6.4748 C
647 O647	1.0105	8.7076	-5.4127 O
648 O648	0.2548	8.4164	-7.5709 O
649 C649	0.3994	6.9947	-7.4420 C
650 C650	1.8143	6.5777	-7.7968 C
651 H651	-0.3059	6.5366	-8.1432 H
652 H652	0.1211	6.6547	-6.4377 H
653 H653	2.0763	6.9232	-8.8022 H
654 H654	1.9190	5.4897	-7.7588 H
655 H655	2.5395	7.0227	-7.1081 H
656 C656	6.5695	5.0464	-5.5072 C
657 C657	7.5019	5.9055	-5.9377 C
658 H658	6.5459	4.0242	-5.8692 H
659 H659	5.8120	5.3436	-4.7864 H
660 H660	8.2568	5.6102	-6.6559 H
661 C661	7.5343	7.2990	-5.4446 C
662 O662	6.7546	7.7789	-4.6393 O
663 O663	8.5722	7.9288	-6.0491 O
664 C664	8.7591	9.3029	-5.6811 C
665 C665	7.9054	10.2006	-6.5571 C
666 H666	9.8176	9.5349	-5.8377 H
667 H667	8.5487	9.4633	-4.6173 H
668 H668	8.1283	10.0296	-7.6154 H
669 H669	8.0850	11.2540	-6.3242 H
670 H670	6.8407	9.9885	-6.4175 H
671 C671	6.8242	8.2224	-2.6870 C
672 C672	6.1901	9.1745	-1.9910 C
673 H673	7.7115	7.7414	-2.2901 H
674 H674	6.4725	7.9036	-3.6649 H
675 H675	6.5399	9.4928	-1.0167 H
676 C676	4.9806	9.8307	-2.5318 C
677 O677	4.4681	9.5830	-3.6101 O
678 O678	4.5616	10.7437	-1.6207 O
679 C679	3.3835	11.4792	-1.9811 C
680 C680	3.7581	12.6990	-2.8018 C
681 H681	2.9064	11.7960	-1.0479 H
682 H682	2.6636	10.8449	-2.5112 H
683 H683	4.4759	13.3223	-2.2586 H
684 H684	2.8728	13.2986	-3.0316 H
685 H685	4.2368	12.4080	-3.7422 H
686 C686	2.9498	-1.7467	4.7677 C
687 C687	2.0659	-0.8128	4.3943 C
688 H688	3.9456	-1.7729	4.3386 H
689 H689	2.6995	-2.5029	5.5074 H
690 H690	2.3144	-0.0591	3.6573 H
691 C691	0.7083	-0.7769	4.9789 C
692 O692	0.2813	-1.5549	5.8150 O
693 O693	0.0420	0.2618	4.4165 O
694 C694	-1.3043	0.4519	4.8748 C
695 C695	-2.2600	-0.4005	4.0613 C
696 H696	-1.5439	1.5109	4.7329 H
697 H697	-1.3941	0.2428	5.9471 H
698 H698	-2.1592	-0.1789	2.9937 H
699 H699	-3.2952	-0.2184	4.3634 H
700 H700	-2.0413	-1.4655	4.1875 H
701 C701	-6.5684	-1.2841	4.2918 C
702 C702	-5.3021	-1.4709	4.6851 C
703 H703	-7.2707	-2.1103	4.2678 H
704 H704	-6.9303	-0.3057	3.9861 H
705 H705	-4.9408	-2.4454	4.9897 H
706 C706	-4.3444	-0.3449	4.7177 C
707 O707	-4.5998	0.8055	4.4047 O
708 O708	-3.1524	-0.8268	5.1491 O
709 C709	-2.0958	0.1389	5.2480 C
710 C710	-1.3834	0.2743	3.9153 C
711 H711	-1.3949	-0.2302	6.0040 H
712 H712	-2.4710	1.1060	5.6022 H
713 H713	-1.0138	-0.6991	3.5763 H
714 H714	-0.5388	0.9643	3.9955 H
715 H715	-2.0641	0.6435	3.1417 H
716 C716	4.7198	0.0760	-3.2109 C
717 C717	3.8116	-0.0168	-4.1905 C
718 H718	5.7812	0.0482	-3.4325 H
719 H719	4.4246	0.1813	-2.1701 H
720 H720	4.1050	-0.1219	-5.2277 H
721 C721	2.3647	0.0208	-3.8889 C
722 O722	1.8805	0.1332	-2.7755 O
723 O723	1.6935	-0.0952	-5.0616 O
724 C724	0.2626	-0.0726	-4.9585 C
725 C725	-0.2659	-1.4703	-4.6960 C
726 H726	-0.1214	0.2919	-5.9169 H
727 H727	-0.0710	0.6332	-4.1890 H
728 H728	0.0745	-2.1624	-5.4733 H
729 H729	-1.3593	-1.4738	-4.6744 H
730 H730	0.1037	-1.8572	-3.7411 H
731 C731	-3.4380	13.6725	-1.3469 C
732 C732	-2.8898	12.7451	-0.5517 C
733 H733	-3.8431	14.5899	-0.9338 H
734 H734	-3.4941	13.5366	-2.4240 H
735 H735	-2.8336	12.8797	0.5215 H
736 C736	-2.3376	11.4943	-1.1144 C
737 O737	-2.3284	11.1986	-2.2973 O
738 O738	-1.8575	10.7531	-0.0852 O
739 C739	-1.2735	9.4946	-0.4509 C
740 C740	-2.3436	8.4213	-0.5216 C
741 H741	-0.5480	9.2400	0.3287 H
742 H742	-0.7192	9.5707	-1.3936 H
743 H743	-2.8866	8.3568	0.4270 H
744 H744	-1.9006	7.4460	-0.7418 H
745 H745	-3.0817	8.6528	-1.2960 H
746 C746	-5.8084	0.6283	2.9167 C
747 C747	-4.5944	0.8673	3.4286 C
748 H748	-5.9194	0.1775	1.9365 H
749 H749	-6.7147	0.8767	3.4631 H
750 H750	-3.6909	0.6203	2.8848 H
751 C751	-4.4426	1.4821	4.7647 C
752 O752	-5.3607	1.8159	5.4943 O
753 O753	-3.1156	1.6047	5.0163 O
754 C754	-2.7791	2.1838	6.2852 C
755 C755	-2.7409	3.6967	6.1770 C
756 H756	-1.7862	1.8091	6.5546 H
757 H757	-3.4706	1.8553	7.0698 H
758 H758	-2.0454	4.0085	5.3909 H
759 H759	-2.4277	4.1454	7.1239 H
760 H760	-3.7241	4.0964	5.9093 H
761 C761	0.6412	-4.5645	-2.3047 C
762 C762	-0.4561	-3.8799	-1.9581 C
763 H763	1.3833	-4.1282	-2.9646 H
764 H764	0.8221	-5.5720	-1.9387 H
765 H765	-0.6371	-2.8762	-2.3224 H
766 C766	-1.4679	-4.4744	-1.0587 C
767 O767	-1.4066	-5.5898	-0.5700 O
768 O768	-2.4577	-3.5631	-0.8883 O
769 C769	-3.5330	-3.9730	-0.0314 C
770 C770	-4.5786	-4.7303	-0.8284 C
771 H771	-3.9759	-3.0620	0.3843 H
772 H772	-3.1657	-4.5666	0.8138 H
773 H773	-4.9361	-4.1241	-1.6672 H
774 H774	-5.4307	-4.9960	-0.1964 H
775 H775	-4.1598	-5.6476	-1.2541 H
@<TRIPOS>BOND
1 1 3 2
2 1 4 1
3 1 5 1
4 2 3 1
5 3 6 1
6 6 7 2
7 6 9 1
8 7 8 1
9 7 14 1
10 9 10 1
11 10 11 1
12 10 12 1
13 10 13 1
14 14 15 1
15 15 16 2
16 15 21 2
17 16 17 2
18 16 18 1
19 17 19 2
20 17 20 1
21 19 22 2
22 19 23 1
23 21 22 2
24 21 25 1
25 22 24 1
26 26 27 2
27 26 28 1
28 26 29 1
29 27 30 1
30 27 31 1
31 31 32 2
32 31 33 1
33 33 34 1
34 34 35 1
35 34 36 1
36 34 37 1
37 35 38 1
38 35 39 1
39 35 40 1
40 41 42 2
41 41 43 1
42 41 44 1
43 42 45 1
44 42 46 1
45 46 47 2
46 46 48 1
47 48 49 1
48 49 50 1
49 49 51 1
50 49 52 1
51 50 53 1
52 50 54 1
53 50 55 1
54 56 57 2
55 56 58 1
56 56 59 1
57 57 60 1
58 57 61 1
59 61 62 2
60 61 63 1
61 63 64 1
62 64 65 1
63 64 66 1
64 64 67 1
65 65 68 1
66 65 69 1
67 65 70 1
68 71 72 2
69 71 73 1
70 71 74 1
71 72 75 1
72 72 76 1
73 76 77 2
74 76 78 1
75 78 79 1
76 79 80 1
77 79 81 1
78 79 82 1
79 80 83 1
80 80 84 1
81 80 85 1
82 86 87 2
83 86 88 1
84 86 89 1
85 87 90 1
86 87 91 1
87 91 92 2
88 91 93 1
89 93 94 1
90 94 95 1
91 94 96 1
92 94 97 1
93 95 98 1
94 95 99 1
95 95 100 1
96 101 102 2
97 101 103 1
98 101 104 1
99 102 105 1
100 102 106 1
101 106 107 2
102 106 108 1
103 108 109 1
104 109 110 1
105 109 111 1
106 109 112 1
107 110 113 1
108 110 114 1
109 110 115 1
110 116 117 2
111 116 118 1
112 116 119 1
113 117 120 1
114 117 121 1
115 121 122 2
116 121 123 1
117 123 124 1
118 124 125 1
119 124 126 1
120 124 127 1
121 125 128 1
122 125 129 1
123 125 130 1
124 131 132 2
125 131 133 1
126 131 134 1
127 132 135 1
128 132 136 1
129 136 137 2
130 136 138 1
131 138 139 1
132 139 140 1
133 139 141 1
134 139 142 1
135 140 143 1
136 140 144 1
137 140 145 1
138 146 147 2
139 146 148 1
140 146 149 1
141 147 150 1
142 147 151 1
143 151 152 2
144 151 153 1
145 153 154 1
146 154 155 1
147 154 156 1
148 154 157 1
149 155 158 1
150 155 159 1
151 155 160 1
152 161 162 2
153 161 163 1
154 161 164 1
155 162 165 1
156 162 166 1
157 166 167 2
158 166 168 1
159 168 169 1
160 169 170 1
161 169 171 1
162 169 172 1
163 170 173 1
164 170 174 1
165 170 175 1
166 176 177 2
167 176 178 1
168 176 179 1
169 177 180 1
170 177 181 1
171 181 182 2
172 181 183 1
173 183 184 1
174 184 185 1
175 184 186 1
176 184 187 1
177 185 188 1
178 185 189 1
179 185 190 1
180 191 192 2
181 191 193 1
182 191 194 1
183 192 195 1
184 192 196 1
185 196 197 2
186 196 198 1
187 198 199 1
188 199 200 1
189 199 201 1
190 199 202 1
191 200 203 1
192 200 204 1
193 200 205 1
194 206 207 2
195 206 208 1
196 206 209 1
197 207 210 1
198 207 211 1
199 211 212 2
200 211 213 1
201 213 214 1
202 214 215 1
203 214 216 1
204 214 217 1
205 215 218 1
206 215 219 1
207 215 220 1
208 221 222 2
209 221 223 1
210 221 224 1
211 222 225 1
212 222 226 1
213 226 227 2
214 226 228 1
215 228 229 1
216 229 230 1
217 229 231 1
218 229 232 1
219 230 233 1
220 230 234 1
221 230 235 1
222 236 237 2
223 236 238 1
224 236 239 1
225 237 240 1
226 237 241 1
227 241 242 2
228 241 243 1
229 243 244 1
230 244 245 1
231 244 246 1
232 244 247 1
233 245 248 1
234 245 249 1
235 245 250 1
236 251 252 2
237 251 253 1
238 251 254 1
239 252 255 1
240 252 256 1
241 256 257 2
242 256 258 1
243 258 259 1
244 259 260 1
245 259 261 1
246 259 262 1
247 260 263 1
248 260 264 1
249 260 265 1
250 266 267 2
251 266 268 1
252 266 269 1
253 267 270 1
254 267 271 1
255 271 272 2
256 271 273 1
257 273 274 1
258 274 275 1
259 274 276 1
260 274 277 1
261 275 278 1
262 275 279 1
263 275 280 1
264 281 282 2
265 281 283 1
266 281 284 1
267 282 285 1
268 282 286 1
269 286 287 2
270 286 288 1
271 288 289 1
272 289 290 1
273 289 291 1
274 289 292 1
275 290 293 1
276 290 294 1
277 290 295 1
278 296 297 2
279 296 298 1
280 296 299 1
281 297 300 1
282 297 301 1
283 301 302 2
284 301 303 1
285 303 304 1
286 304 305 1
287 304 306 1
288 304 307 1
289 305 308 1
290 305 309 1
291 305 310 1
292 311 312 2
293 311 313 1
294 311 314 1
295 312 315 1
296 312 316 1
297 316 317 2
298 316 318 1
299 318 319 1
300 319 320 1
301 319 321 1
302 319 322 1
303 320 323 1
304 320 324 1
305 320 325 1
306 326 327 2
307 326 328 1
308 326 329 1
309 327 330 1
310 327 331 1
311 331 332 2
312 331 333 1
313 333 334 1
314 334 335 1
315 334 336 1
316 334 337 1
317 335 338 1
318 335 339 1
319 335 340 1
320 341 342 2
321 341 343 1
322 341 344 1
323 342 345 1
324 342 346 1
325 346 347 2
326 346 348 1
327 348 349 1
328 349 350 1
329 349 351 1
330 349 352 1
331 350 353 1
332 350 354 1
333 350 355 1
334 356 357 2
335 356 358 1
336 356 359 1
337 357 360 1
338 357 361 1
339 361 362 2
340 361 363 1
341 363 364 1
342 364 365 1
343 364 366 1
344 364 367 1
345 365 368 1
346 365 369 1
347 365 370 1
348 371 372 2
349 371 373 1
350 371 374 1
351 372 375 1
352 372 376 1
353 376 377 2
354 376 378 1
355 378 379 1
356 379 380 1
357 379 381 1
358 379 382 1
359 380 383 1
360 380 384 1
361 380 385 1
362 386 387 2
363 386 388 1
364 386 389 1
365 387 390 1
366 387 391 1
367 391 392 2
368 391 393 1
369 393 394 1
370 394 395 1
371 394 396 1
372 394 397 1
373 395 398 1
374 395 399 1
375 395 400 1
376 401 402 2
377 401 403 1
378 401 404 1
379 402 405 1
380 402 406 1
381 406 407 2
382 406 408 1
383 408 409 1
384 409 410 1
385 409 411 1
386 409 412 1
387 410 413 1
388 410 414 1
389 410 415 1
390 416 417 2
391 416 418 1
392 416 419 1
393 417 420 1
394 417 421 1
395 421 422 2
396 421 423 1
397 423 424 1
398 424 425 1
399 424 426 1
400 424 427 1
401 425 428 1
402 425 429 1
403 425 430 1
404 431 432 2
405 431 433 1
406 431 434 1
407 432 435 1
408 432 436 1
409 436 437 2
410 436 438 1
411 438 439 1
412 439 440 1
413 439 441 1
414 439 442 1
415 440 443 1
416 440 444 1
417 440 445 1
418 446 447 2
419 446 448 1
420 446 449 1
421 447 450 1
422 447 451 1
423 451 452 2
424 451 453 1
425 453 454 1
426 454 455 1
427 454 456 1
428 454 457 1
429 455 458 1
430 455 459 1
431 455 460 1
432 461 462 2
433 461 463 1
434 461 464 1
435 462 465 1
436 462 466 1
437 466 467 2
438 466 468 1
439 468 469 1
440 469 470 1
441 469 471 1
442 469 472 1
443 470 473 1
444 470 474 1
445 470 475 1
446 476 477 2
447 476 478 1
448 476 479 1
449 477 480 1
450 477 481 1
451 481 482 2
452 481 483 1
453 483 484 1
454 484 485 1
455 484 486 1
456 484 487 1
457 485 488 1
458 485 489 1
459 485 490 1
460 491 492 2
461 491 493 1
462 491 494 1
463 492 495 1
464 492 496 1
465 496 497 2
466 496 498 1
467 498 499 1
468 499 500 1
469 499 501 1
470 499 502 1
471 500 503 1
472 500 504 1
473 500 505 1
474 506 507 2
475 506 508 1
476 506 509 1
477 507 510 1
478 507 511 1
479 511 512 2
480 511 513 1
481 513 514 1
482 514 515 1
483 514 516 1
484 514 517 1
485 515 518 1
486 515 519 1
487 515 520 1
488 521 522 2
489 521 523 1
490 521 524 1
491 522 525 1
492 522 526 1
493 526 527 2
494 526 528 1
495 528 529 1
496 529 530 1
497 529 531 1
498 529 532 1
499 530 533 1
500 530 534 1
501 530 535 1
502 536 537 2
503 536 538 1
504 536 539 1
505 537 540 1
506 537 541 1
507 541 542 2
508 541 543 1
509 543 544 1
510 544 545 1
511 544 546 1
512 544 547 1
513 545 548 1
514 545 549 1
515 545 550 1
516 551 552 2
517 551 553 1
518 551 554 1
519 552 555 1
520 552 556 1
521 556 557 2
522 556 558 1
523 558 559 1
524 559 560 1
525 559 561 1
526 559 562 1
527 560 563 1
528 560 564 1
529 560 565 1
530 566 567 2
531 566 568 1
532 566 569 1
533 567 570 1
534 567 571 1
535 571 572 2
536 571 573 1
537 573 574 1
538 574 575 1
539 574 576 1
540 574 577 1
541 575 578 1
542 575 579 1
543 575 580 1
544 581 582 2
545 581 583 1
546 581 584 1
547 582 585 1
548 582 586 1
549 586 587 2
550 586 588 1
551 588 589 1
552 589 590 1
553 589 591 1
554 589 592 1
555 590 593 1
556 590 594 1
557 590 595 1
558 596 597 2
559 596 598 1
560 596 599 1
561 597 600 1
562 597 601 1
563 601 602 2
564 601 603 1
565 603 604 1
566 604 605 1
567 604 606 1
568 604 607 1
569 605 608 1
570 605 609 1
571 605 610 1
572 611 612 2
573 611 613 1
574 611 614 1
575 612 615 1
576 612 616 1
577 616 617 2
578 616 618 1
579 618 619 1
580 619 620 1
581 619 621 1
582 619 622 1
583 620 623 1
584 620 624 1
585 620 625 1
586 626 627 2
587 626 628 1
588 626 629 1
589 627 630 1
590 627 631 1
591 631 632 2
592 631 633 1
593 633 634 1
594 634 635 1
595 634 636 1
596 634 637 1
597 635 638 1
598 635 639 1
599 635 640 1
600 641 642 2
601 641 643 1
602 641 644 1
603 642 645 1
604 642 646 1
605 646 647 2
606 646 648 1
607 648 649 1
608 649 650 1
609 649 651 1
610 649 652 1
611 650 653 1
612 650 654 1
613 650 655 1
614 656 657 2
615 656 658 1
616 656 659 1
617 657 660 1
618 657 661 1
619 661 662 2
620 661 663 1
621 663 664 1
622 664 665 1
623 664 666 1
624 664 667 1
625 665 668 1
626 665 669 1
627 665 670 1
628 671 672 2
629 671 673 1
630 671 674 1
631 672 675 1
632 672 676 1
633 676 677 2
634 676 678 1
635 678 679 1
636 679 680 1
637 679 681 1
638 679 682 1
639 680 683 1
640 680 684 1
641 680 685 1
642 686 687 2
643 686 688 1
644 686 689 1
645 687 690 1
646 687 691 1
647 691 692 2
648 691 693 1
649 693 694 1
650 694 695 1
651 694 696 1
652 694 697 1
653 695 698 1
654 695 699 1
655 695 700 1
656 701 702 2
657 701 703 1
658 701 704 1
659 702 705 1
660 702 706 1
661 706 707 2
662 706 708 1
663 708 709 1
664 709 710 1
665 709 711 1
666 709 712 1
667 710 713 1
668 710 714 1
669 710 715 1
670 716 717 2
671 716 718 1
672 716 719 1
673 717 720 1
674 717 721 1
675 721 722 2
676 721 723 1
677 723 724 1
678 724 725 1
679 724 726 1
680 724 727 1
681 725 728 1
682 725 729 1
683 725 730 1
684 731 732 2
685 731 733 1
686 731 734 1
687 732 735 1
688 732 736 1
689 736 737 2
690 736 738 1
691 738 739 1
692 739 740 1
693 739 741 1
694 739 742 1
695 740 743 1
696 740 744 1
697 740 745 1
698 746 747 2
699 746 748 1
700 746 749 1
701 747 750 1
702 747 751 1
703 751 752 2
704 751 753 1
705 753 754 1
706 754 755 1
707 754 756 1
708 754 757 1
709 755 758 1
710 755 759 1
711 755 760 1
712 761 762 2
713 761 763 1
714 761 764 1
715 762 765 1
716 762 766 1
717 766 767 2
718 766 768 1
719 768 769 1
720 769 770 1
721 769 771 1
722 769 772 1
723 770 773 1
724 770 774 1
725 770 775 1
