# Title
# Created by GaussView 5.0.8
#

#
#

@<TRIPOS>MOLECULE
Molecule Name
403 303
SMALL
NO_CHARGES


@<TRIPOS>ATOM
1 C1     0.0000     0.0000     0.0000 C
2 H2    -1.0835     0.0000     0.0000 H
3 C3     0.7457     1.1053     0.0000 C
4 H4     0.2726     2.0824     0.0000 H
5 H5     1.8291     1.0747    -0.0000 H
6 O6     0.5011    -1.2693     0.0000 O
7 H7     1.4727    -1.2210    -0.0000 H
8 C8     2.2643    -4.5523     0.0588 C
9 H9     1.2671    -4.2752    -0.3189 H
10 H10     2.4665    -5.6338     0.1165 H
11 O11     3.0927    -3.7142     0.3921 O
12 C12     1.2841    -4.1082    -1.0486 C
13 H13     0.8087    -4.4335    -0.1095 H
14 H14     0.6193    -4.0612    -1.9259 H
15 O15     2.4722    -3.8183    -1.1130 O
16 C16     5.0613    -0.0188    -1.4363 C
17 H17     5.7668     0.7875    -1.1797 H
18 H18     5.0562    -0.3264    -2.4942 H
19 O19     4.3314    -0.5384    -0.6014 O
20 C20     3.2820     0.0300    -3.0193 C
21 H21     2.3204     0.5574    -2.9139 H
22 H22     3.7804     0.1418    -3.9954 H
23 O23     3.7645    -0.6360    -2.1119 O
24 C24     3.5620    -1.4454    -3.1659 C
25 H25     2.9520    -2.3097    -3.4737 H
26 H26     4.0301    -0.8784    -3.9864 H
27 O27     3.7098    -1.1357    -1.9904 O
28 C28     4.4449    -0.7260    -2.1841 C
29 H29     5.3350    -0.5046    -2.7945 H
30 H30     3.7018    -1.3912    -2.6520 H
31 O31     4.2919    -0.2634    -1.0606 O
32 C32     4.8571    -1.1930    -2.4031 C
33 H33     5.5035    -2.0821    -2.3295 H
34 H34     5.0164    -0.5625    -3.2924 H
35 O35     4.0176    -0.9236    -1.5532 O
36 C36     1.8319    -3.7428    -1.6721 C
37 H37     1.6057    -3.1559    -2.5767 H
38 H38     1.0399    -4.4352    -1.3450 H
39 O39     2.8928    -3.6327    -1.0704 O
40 C40     2.5142    -4.2879     1.2736 C
41 H41     2.5455    -5.3808     1.4087 H
42 H42     1.9402    -3.7319     2.0320 H
43 O43     3.0796    -3.7283     0.3425 O
44 C44     1.5774    -0.9304    -3.0701 C
45 H45     1.1767    -1.9521    -3.1672 H
46 H46     0.8852    -0.1203    -3.3501 H
47 O47     2.7161    -0.7099    -2.6770 O
48 C48     5.2477    -0.8139    -0.0344 C
49 H49     5.9441    -0.0121     0.2589 H
50 H50     5.4578    -1.8062     0.3956 H
51 O51     4.3032    -0.6153    -0.7882 O
52 C52     3.3973    -2.1587    -2.4651 C
53 H53     2.5299    -1.5595    -2.7848 H
54 H54     3.6636    -2.9989    -3.1261 H
55 O55     4.0236    -1.9077    -1.4431 O
56 C56     3.9538    -0.6295    -2.9311 C
57 H57     3.7992    -0.0475    -3.8537 H
58 H58     4.1726    -1.6995    -3.0758 H
59 O59     3.8869    -0.1211    -1.8190 O
60 C60     1.8155    -4.5842    -0.2929 C
61 H61     1.9443    -4.7495    -1.3745 H
62 H62     0.9036    -5.0172     0.1483 H
63 O63     2.6316    -3.9608     0.3743 O
64 C64     1.7913    -4.9506     0.5351 C
65 H65     1.4693    -5.7772    -0.1182 H
66 H66     1.4343    -5.0014     1.5761 H
67 O67     2.4989    -4.0363     0.1311 O
68 C68     0.1751    -1.7382    -3.2743 C
69 H69    -0.3535    -1.4265    -4.1892 H
70 H70    -0.3656    -2.4531    -2.6338 H
71 O71     1.2893    -1.3180    -2.9883 O
72 C72    -1.5256    -3.2323    -1.6714 C
73 H73    -1.3744    -4.2449    -1.2645 H
74 H74    -0.6903    -2.8301    -2.2665 H
75 O75    -2.5536    -2.5963    -1.4751 O
76 C76     4.4772    -0.5054    -1.4828 C
77 H77     5.3852    -0.5424    -2.1056 H
78 H78     3.5353    -0.3302    -2.0266 H
79 O79     4.5126    -0.6495    -0.2672 O
80 C80    -0.3532    -3.1847    -2.2142 C
81 H81    -1.2873    -3.0167    -1.6549 H
82 H82     0.2648    -4.0269    -1.8643 H
83 O83    -0.0237    -2.4821    -3.1617 O
84 C84     0.2436    -1.7791     3.0050 C
85 H85    -0.0218    -2.8228     3.2371 H
86 H86    -0.6043    -1.1119     2.7820 H
87 O87     1.4036    -1.3867     2.9953 O
88 C88     2.1242    -1.4449     2.9167 C
89 H89     1.9103    -0.3665     2.8451 H
90 H90     1.3591    -2.0475     3.4317 H
91 O91     3.1443    -1.9405     2.4547 O
92 C92     2.5574    -1.3106    -3.0655 C
93 H93     2.1415    -1.0804    -4.0594 H
94 H94     2.3078    -2.3062    -2.6653 H
95 O95     3.2507    -0.5129    -2.4468 O
96 C96     3.2215    -1.6958    -2.8950 C
97 H97     2.5981    -0.7904    -2.8222 H
98 H98     3.6627    -1.8901    -3.8857 H
99 O99     3.4114    -2.4369    -1.9387 O
100 C100     3.5643    -1.4219    -2.5404 C
101 H101     4.1017    -0.7506    -3.2290 H
102 H102     2.5764    -1.7655    -2.8866 H
103 O103     4.0336    -1.7635    -1.4620 O
104 C104    -0.0495    -2.7389    -2.5515 C
105 H105    -0.4901    -1.9710    -3.2072 H
106 H106    -0.7681    -3.3213    -1.9530 H
107 O107     1.1583    -2.9321    -2.4920 O
108 C108     1.0970    -4.7542    -1.2239 C
109 H109     0.1752    -4.6069    -1.8091 H
110 H110     1.1593    -5.7026    -0.6668 H
111 O111     1.9925    -3.9193    -1.1947 O
112 C112     1.2292    -1.6404     3.7995 C
113 H113     1.0301    -2.6823     4.0969 H
114 H114     0.6403    -0.8746     4.3292 H
115 O115     2.0503    -1.3526     2.9376 O
116 C116    -1.2175    -3.9240    -2.5511 C
117 H117    -0.6384    -3.1267    -2.0585 H
118 H118    -2.0051    -4.3880    -1.9361 H
119 O119    -1.0003    -4.2714    -3.7051 O
120 C120    -1.2196    -3.9307    -2.5812 C
121 H121    -2.0506    -4.4324    -2.0601 H
122 H122    -0.6445    -3.2120    -1.9758 H
123 O123    -0.9531    -4.1567    -3.7549 O
124 C124    -1.4769    -3.0345    -2.1809 C
125 H125    -2.0316    -2.1284    -1.8893 H
126 H126    -0.9492    -3.5516    -1.3637 H
127 O127    -1.4488    -3.4398    -3.3361 O
128 C128     1.5361    -4.8906    -0.7446 C
129 H129     1.2153    -5.5827    -1.5395 H
130 H130     0.7479    -4.2377    -0.3370 H
131 O131     2.6916    -4.8498    -0.3411 O
132 C132     0.6846    -0.2881     3.3810 C
133 H133     0.2035     0.3048     4.1752 H
134 H134     0.0739    -1.1033     2.9611 H
135 O135     1.8221    -0.0566     2.9911 O
136 C136    -0.4183    -2.8081    -2.4047 C
137 H137     0.2094    -3.6517    -2.0758 H
138 H138    -1.4695    -2.8424    -2.0768 H
139 O139     0.0230    -1.8934    -3.0890 O
140 C140    -0.4877    -3.9797    -2.2296 C
141 H141    -0.5375    -2.8818    -2.3063 H
142 H142    -1.1298    -4.4312    -1.4565 H
143 O143     0.2331    -4.6532    -2.9552 O
144 C144     4.9234    -0.1823    -1.9716 C
145 H145     4.1973    -0.7839    -2.5414 H
146 H146     5.9683    -0.2493    -2.3143 H
147 O147     4.5912     0.5144    -1.0208 O
148 C148     2.9601    -4.4319    -0.7406 C
149 H149     3.2360    -4.3998     0.3255 H
150 H150     2.7278    -5.4316    -1.1410 H
151 O151     2.9145    -3.4236    -1.4342 O
152 C152     0.9519    -4.4115    -0.8314 C
153 H153    -0.0707    -4.1691    -0.5009 H
154 H154     1.4028    -5.3022    -0.3656 H
155 O155     1.5476    -3.7359    -1.6611 O
156 C156     1.7501    -3.6174    -1.7779 C
157 H157     0.7140    -3.9610    -1.9263 H
158 H158     2.2789    -4.0606    -0.9190 H
159 O159     2.2788    -2.7975    -2.5181 O
160 C160     2.8842    -4.3251    -1.0470 C
161 H161     3.0526    -3.7322    -1.9602 H
162 H162     2.6599    -5.3916    -1.2080 H
163 O163     2.9424    -3.8315     0.0722 O
164 C164     3.1180     1.2037    -3.5477 C
165 H165     3.1882     0.7466    -4.5477 H
166 H166     2.8093     2.2611    -3.5297 H
167 O167     3.3666     0.5782    -2.5247 O
168 C168    -0.9710    -3.7787    -2.7120 C
169 H169    -0.6156    -3.4576    -1.7199 H
170 H170    -1.7722    -3.1633    -3.1514 H
171 O171    -0.5065    -4.7545    -3.2880 O
172 C172     3.7464    -2.6004    -2.2426 C
173 H173     4.1770    -3.2037    -3.0577 H
174 H174     3.4969    -1.5594    -2.5030 H
175 O175     3.5577    -3.0566    -1.1218 O
176 C176     3.4232     2.1311    -2.9076 C
177 H177     4.0162     2.8832    -3.4521 H
178 H178     2.3416     2.1367    -3.1172 H
179 O179     3.9323     1.3417    -2.1219 O
180 C180    -4.7569    -1.1381    -0.2628 C
181 H181    -4.3377    -2.1546    -0.1942 H
182 H182    -5.8540    -1.0708    -0.1871 H
183 O183    -4.0506    -0.1490    -0.4132 O
184 C184    -0.8472    -2.8956    -2.1235 C
185 H185    -0.2138    -2.5499    -2.9560 H
186 H186    -0.4968    -3.8025    -1.6053 H
187 O187    -1.8721    -2.3109    -1.7960 O
188 C188     1.4324    -4.6921    -0.0049 C
189 H189     1.0549    -4.0952     0.8407 H
190 H190     0.7088    -4.8795    -0.8142 H
191 O191     2.5797    -5.1186    -0.0428 O
192 C192     1.1476    -3.6736    -2.6593 C
193 H193     0.1696    -3.8436    -3.1371 H
194 H194     1.6009    -4.5553    -2.1789 H
195 O195     1.6943    -2.5777    -2.6620 O
196 C196     0.6495    -0.7565     3.2997 C
197 H197     0.5418     0.2771     2.9339 H
198 H198    -0.2932    -1.2859     3.5114 H
199 O199     1.7440    -1.2820     3.4601 O
200 C200     1.1501    -2.2080    -3.7838 C
201 H201     0.3631    -1.9146    -4.4967 H
202 H202     0.8087    -2.4078    -2.7555 H
203 O203     2.3258    -2.3056    -4.1124 O
204 C204     2.1456    -1.3379     3.6864 C
205 H205     1.9243    -1.5665     4.7412 H
206 H206     1.4095    -1.7091     2.9556 H
207 O207     3.1433    -0.7131     3.3488 O
208 C208     1.1419    -4.9064    -0.3087 C
209 H209     0.2882    -5.5922    -0.4304 H
210 H210     1.0495    -4.1737     0.5088 H
211 O211     2.1276    -4.9555    -1.0337 O
212 C212     0.8718    -1.6243     3.8724 C
213 H213     0.0789    -1.1716     4.4890 H
214 H214     0.5458    -2.0256     2.8995 H
215 O215     2.0376    -1.6778     4.2436 O
216 C216    -0.6651    -2.2636    -2.6759 C
217 H217    -1.7286    -1.9761    -2.6637 H
218 H218    -0.4147    -3.1804    -2.1186 H
219 O219     0.1821    -1.6078    -3.2692 O
220 C220    -1.4509     1.7934    -3.2529 C
221 H221    -1.6030     2.2049    -4.2635 H
222 H222    -0.4066     1.7679    -2.9028 H
223 O223    -2.3805     1.3912    -2.5646 O
224 C224     1.0692    -1.2792     3.4869 C
225 H225     1.3125    -1.9388     4.3351 H
226 H226     0.1259    -1.5056     2.9647 H
227 O227     1.7986    -0.3560     3.1471 O
228 C228     2.7631    -4.1346    -2.2753 C
229 H229     2.2345    -4.7748    -2.9995 H
230 H230     3.4792    -4.6527    -1.6176 H
231 O231     2.5677    -2.9276    -2.2060 O
232 C232    -0.9241    -2.8279    -3.2143 C
233 H233    -1.0097    -3.7171    -2.5696 H
234 H234    -0.6333    -1.8966    -2.7026 H
235 O235    -1.1380    -2.8717    -4.4193 O
236 C236    -0.6781    -3.6109    -2.7378 C
237 H237    -0.5922    -3.5268    -1.6427 H
238 H238    -1.4189    -4.3409    -3.1012 H
239 O239     0.0042    -2.9379    -3.5002 O
240 C240     0.8381    -1.7094     3.7913 C
241 H241     0.1012    -0.8979     3.6807 H
242 H242     0.8456    -2.2138     4.7707 H
243 O243     1.5982    -2.0293     2.8859 O
244 C244     0.5873    -0.7107     3.3814 C
245 H245    -0.0633    -1.5994     3.4076 H
246 H246     0.1219     0.2070     2.9878 H
247 O247     1.7502    -0.7409     3.7643 O
248 C248     1.5664    -1.5585     2.9770 C
249 H249     0.5137    -1.8364     3.1452 H
250 H250     2.2603    -2.3997     2.8197 H
251 O251     1.9404    -0.3924     2.9658 O
252 C252     5.0935     0.9934     0.6356 C
253 H253     5.2428     2.0810     0.5432 H
254 H254     5.3112     0.5668     1.6278 H
255 O255     4.7111     0.3046    -0.3020 O
256 C256    -0.6323    -2.8296    -2.3226 C
257 H257     0.2944    -2.4240    -2.7591 H
258 H258    -1.4847    -2.1326    -2.2862 H
259 O259    -0.7097    -3.9785    -1.9058 O
260 C260    -3.0112    -2.2465    -0.5242 C
261 H261    -3.3243    -2.4399     0.5142 H
262 H262    -2.2399    -2.9253    -0.9218 H
263 O263    -3.4887    -1.3378    -1.1920 O
264 C264    -0.7984    -3.2009    -2.1913 C
265 H265    -1.8775    -3.0122    -2.0743 H
266 H266    -0.2261    -2.3963    -2.6801 H
267 O267    -0.2704    -4.2357    -1.8040 O
268 C268    -0.8759    -2.6851    -3.2936 C
269 H269    -0.5958    -1.7720    -2.7445 H
270 H270    -0.5309    -3.6318    -2.8480 H
271 O271    -1.5272    -2.6501    -4.3301 O
272 C272    -1.9730    -1.5549    -2.6076 C
273 H273    -1.6391    -2.5945    -2.4613 H
274 H274    -1.3520    -0.9477    -3.2854 H
275 O275    -2.9679    -1.1042    -2.0537 O
276 C276     2.7717    -1.7744    -2.6439 C
277 H277     3.1867    -2.7863    -2.5115 H
278 H278     1.7320    -1.7311    -3.0057 H
279 O279     3.4228    -0.7650    -2.4049 O
280 C280     0.3734    -2.2129     3.4513 C
281 H281     0.6963    -1.2657     2.9905 H
282 H282    -0.6930    -2.4610     3.3292 H
283 O283     1.1481    -2.9412     4.0588 O
284 C284     5.0622    -0.6250    -1.7180 C
285 H285     5.5342    -1.0221    -0.8051 H
286 H286     5.4636    -1.0134    -2.6675 H
287 O287     4.1522     0.1936    -1.6797 O
288 C288    -0.1492    -2.3165     3.7535 C
289 H289     0.1877    -2.4880     2.7187 H
290 H290    -0.6670    -3.1637     4.2309 H
291 O291     0.0393    -1.2549     4.3344 O
292 C292     0.3400    -0.7228     3.2716 C
293 H293    -0.5457    -0.1546     2.9453 H
294 H294     0.1513    -1.7669     3.5683 H
295 O295     1.4593    -0.2270     3.3024 O
296 C296     2.4428    -4.1288    -1.0838 C
297 H297     1.9905    -5.0987    -1.3455 H
298 H298     2.6531    -3.9765    -0.0131 H
299 O299     2.6949    -3.2769    -1.9267 O
300 C300     3.4830     3.7054    -1.8894 C
301 H301     3.8280     4.7510    -1.8527 H
302 H302     2.6866     3.4936    -2.6206 H
303 O303     3.9533     2.8366    -1.1658 O
304 C304     1.8790    -3.9622    -1.7342 C
305 H305     1.6371    -4.1394    -0.6741 H
306 H306     1.2262    -3.2449    -2.2568 H
307 O307     2.8114    -4.5250    -2.2944 O
308 C308     2.5697    -3.1875    -2.3253 C
309 H309     2.7265    -2.6823    -3.2917 H
310 H310     1.5200    -3.3949    -2.0628 H
311 O311     3.5000    -3.4977    -1.5918 O
312 C312     1.3077    -3.9095    -2.7925 C
313 H313     1.0743    -3.6351    -1.7514 H
314 H314     1.1010    -3.1328    -3.5460 H
315 O315     1.7664    -5.0047    -3.0923 O
316 C316    -0.0594    -3.9257    -1.9544 C
317 H317    -0.9011    -3.2380    -1.7748 H
318 H318    -0.1376    -4.5448    -2.8624 H
319 O319     0.8991    -3.9974    -1.1956 O
320 C320    -3.9607    -0.2993    -2.4206 C
321 H321    -3.9332     0.1896    -3.4075 H
322 H322    -4.2151    -1.3711    -2.4287 H
323 O323    -3.7241     0.3082    -1.3839 O
324 C324    -5.0881    -1.0497    -0.1844 C
325 H325    -5.3884    -1.9867    -0.6800 H
326 H326    -5.8235    -0.6281     0.5194 H
327 O327    -4.0091    -0.5127    -0.4013 O
328 C328     2.3707    -3.4200    -3.1317 C
329 H329     3.2612    -3.6706    -3.7299 H
330 H330     1.4454    -3.2514    -3.7054 H
331 O331     2.4069    -3.3348    -1.9106 O
332 C332    -4.9575    -0.0277    -0.8206 C
333 H333    -5.9627     0.2060    -0.4348 H
334 H334    -4.8238     0.1020    -1.9065 H
335 O335    -4.0496    -0.4063    -0.0912 O
336 C336    -0.7847    -3.7083    -1.2191 C
337 H337    -0.0492    -4.3522    -1.7273 H
338 H338    -0.9225    -3.9024    -0.1435 H
339 O339    -1.4073    -2.8351    -1.8104 O
340 C340     1.8726    -4.4240     0.3854 C
341 H341     0.9101    -4.8797     0.6680 H
342 H342     2.6094    -4.3281     1.1988 H
343 O343     2.1076    -4.0491    -0.7565 O
344 C344    -1.0915     1.7875    -3.0982 C
345 H345    -1.4499     0.7702    -2.8738 H
346 H346    -0.2075     1.8458    -3.7530 H
347 O347    -1.6391     2.7868    -2.6495 O
348 C348     2.2811     0.7453    -3.2874 C
349 H349     3.0647     1.3942    -2.8646 H
350 H350     1.7490     1.1518    -4.1622 H
351 O351     2.0192    -0.3544    -2.8165 O
352 C352    -2.7914    -0.7243    -2.8369 C
353 H353    -3.0269    -1.2389    -3.7821 H
354 H354    -2.1188     0.1439    -2.9237 H
355 O355    -3.2469    -1.0927    -1.7615 O
356 C356    -0.0732    -0.1970     3.9398 C
357 H357    -1.0608    -0.3835     4.3909 H
358 H358     0.0764    -0.6192     2.9332 H
359 O359     0.8000     0.4374     4.5184 O
360 C360     2.2506     3.7923    -2.4520 C
361 H361     2.2487     2.7116    -2.6662 H
362 H362     2.7379     4.4258    -3.2104 H
363 O363     1.7449     4.2584    -1.4387 O
364 C364    -3.4659    -3.1835    -0.7653 C
365 H365    -2.7314    -3.7356    -1.3731 H
366 H366    -4.4517    -3.6638    -0.6597 H
367 O367    -3.2041    -2.1076    -0.2421 O
368 C368    -0.1619     4.2336    -3.0160 C
369 H369    -0.9121     3.4496    -3.2066 H
370 H370     0.0883     4.8711    -3.8790 H
371 O371     0.3591     4.3862    -1.9183 O
372 C372     2.0516     4.3978    -2.1594 C
373 H373     2.8257     4.9456    -2.7201 H
374 H374     1.2315     3.9812    -2.7657 H
375 O375     2.0996     4.2610    -0.9433 O
376 C376    -1.4615    -2.0244     2.8657 C
377 H377    -2.2575    -1.6812     2.1857 H
378 H378    -1.2076    -3.0943     2.7977 H
379 O379    -0.8966    -1.2672     3.6450 O
380 C380     1.1174     3.8736    -2.8603 C
381 H381     0.9923     4.0858    -3.9341 H
382 H382     1.9865     3.2495    -2.5977 H
383 O383     0.3421     4.3027    -2.0150 O
384 C384    -4.5139     0.9942    -1.6740 C
385 H385    -5.0478     0.9594    -2.6370 H
386 H386    -4.6809     1.9010    -1.0710 H
387 O387    -3.7835     0.0856    -1.2987 O
388 C388    -0.2622     1.0426     3.9234 C
389 H389    -0.2644     1.0357     2.8217 H
390 H390     0.7247     0.9184     4.3971 H
391 O391    -1.2883     1.1792     4.5778 O
392 C392    -1.6249    -2.6529    -2.9064 C
393 H393    -2.3575    -1.9084    -3.2569 H
394 H394    -0.6509    -2.2475    -2.5889 H
395 O395    -1.8764    -3.8509    -2.8720 O
396 C396     0.5652     0.8275     3.8595 C
397 H397    -0.4959     1.0803     3.7051 H
398 H398     1.1719     0.7454     2.9435 H
399 O399     1.0388     0.6495     4.9748 O
400 C400     1.8129     5.4073    -0.6805 C
401 H401     2.1759     6.3982    -0.3641 H
402 H402     2.5396     4.7891    -1.2314 H
403 O403     0.6775     5.0190    -0.4360 O
@<TRIPOS>BOND
1 1 2 1
2 1 3 1
3 1 6 1
4 3 4 1
5 3 5 1
6 6 7 1
7 8 9 1
8 8 10 1
9 8 11 1
10 12 13 1
11 12 14 1
12 12 15 1
13 16 17 1
14 16 18 1
15 16 19 1
16 20 21 1
17 20 22 1
18 20 23 1
19 24 25 1
20 24 26 1
21 24 27 1
22 28 29 1
23 28 30 1
24 28 31 1
25 32 33 1
26 32 34 1
27 32 35 1
28 36 37 1
29 36 38 1
30 36 39 1
31 40 41 1
32 40 42 1
33 40 43 1
34 44 45 1
35 44 46 1
36 44 47 1
37 48 49 1
38 48 50 1
39 48 51 1
40 52 53 1
41 52 54 1
42 52 55 1
43 56 57 1
44 56 58 1
45 56 59 1
46 60 61 1
47 60 62 1
48 60 63 1
49 64 65 1
50 64 66 1
51 64 67 1
52 68 69 1
53 68 70 1
54 68 71 1
55 72 73 1
56 72 74 1
57 72 75 1
58 76 77 1
59 76 78 1
60 76 79 1
61 80 81 1
62 80 82 1
63 80 83 1
64 84 85 1
65 84 86 1
66 84 87 1
67 88 89 1
68 88 90 1
69 88 91 1
70 92 93 1
71 92 94 1
72 92 95 1
73 96 97 1
74 96 98 1
75 96 99 1
76 100 101 1
77 100 102 1
78 100 103 1
79 104 105 1
80 104 106 1
81 104 107 1
82 108 109 1
83 108 110 1
84 108 111 1
85 112 113 1
86 112 114 1
87 112 115 1
88 116 117 1
89 116 118 1
90 116 119 1
91 120 121 1
92 120 122 1
93 120 123 1
94 124 125 1
95 124 126 1
96 124 127 1
97 128 129 1
98 128 130 1
99 128 131 1
100 132 133 1
101 132 134 1
102 132 135 1
103 136 137 1
104 136 138 1
105 136 139 1
106 140 141 1
107 140 142 1
108 140 143 1
109 144 145 1
110 144 146 1
111 144 147 1
112 148 149 1
113 148 150 1
114 148 151 1
115 152 153 1
116 152 154 1
117 152 155 1
118 156 157 1
119 156 158 1
120 156 159 1
121 160 161 1
122 160 162 1
123 160 163 1
124 164 165 1
125 164 166 1
126 164 167 1
127 168 169 1
128 168 170 1
129 168 171 1
130 172 173 1
131 172 174 1
132 172 175 1
133 176 177 1
134 176 178 1
135 176 179 1
136 180 181 1
137 180 182 1
138 180 183 1
139 184 185 1
140 184 186 1
141 184 187 1
142 188 189 1
143 188 190 1
144 188 191 1
145 192 193 1
146 192 194 1
147 192 195 1
148 196 197 1
149 196 198 1
150 196 199 1
151 200 201 1
152 200 202 1
153 200 203 1
154 204 205 1
155 204 206 1
156 204 207 1
157 208 209 1
158 208 210 1
159 208 211 1
160 212 213 1
161 212 214 1
162 212 215 1
163 216 217 1
164 216 218 1
165 216 219 1
166 220 221 1
167 220 222 1
168 220 223 1
169 224 225 1
170 224 226 1
171 224 227 1
172 228 229 1
173 228 230 1
174 228 231 1
175 232 233 1
176 232 234 1
177 232 235 1
178 236 237 1
179 236 238 1
180 236 239 1
181 240 241 1
182 240 242 1
183 240 243 1
184 244 245 1
185 244 246 1
186 244 247 1
187 248 249 1
188 248 250 1
189 248 251 1
190 252 253 1
191 252 254 1
192 252 255 1
193 256 257 1
194 256 258 1
195 256 259 1
196 260 261 1
197 260 262 1
198 260 263 1
199 264 265 1
200 264 266 1
201 264 267 1
202 268 269 1
203 268 270 1
204 268 271 1
205 272 273 1
206 272 274 1
207 272 275 1
208 276 277 1
209 276 278 1
210 276 279 1
211 280 281 1
212 280 282 1
213 280 283 1
214 284 285 1
215 284 286 1
216 284 287 1
217 288 289 1
218 288 290 1
219 288 291 1
220 292 293 1
221 292 294 1
222 292 295 1
223 296 297 1
224 296 298 1
225 296 299 1
226 300 301 1
227 300 302 1
228 300 303 1
229 304 305 1
230 304 306 1
231 304 307 1
232 308 309 1
233 308 310 1
234 308 311 1
235 312 313 1
236 312 314 1
237 312 315 1
238 316 317 1
239 316 318 1
240 316 319 1
241 320 321 1
242 320 322 1
243 320 323 1
244 324 325 1
245 324 326 1
246 324 327 1
247 328 329 1
248 328 330 1
249 328 331 1
250 332 333 1
251 332 334 1
252 332 335 1
253 336 337 1
254 336 338 1
255 336 339 1
256 340 341 1
257 340 342 1
258 340 343 1
259 344 345 1
260 344 346 1
261 344 347 1
262 348 349 1
263 348 350 1
264 348 351 1
265 352 353 1
266 352 354 1
267 352 355 1
268 356 357 1
269 356 358 1
270 356 359 1
271 360 361 1
272 360 362 1
273 360 363 1
274 364 365 1
275 364 366 1
276 364 367 1
277 368 369 1
278 368 370 1
279 368 371 1
280 372 373 1
281 372 374 1
282 372 375 1
283 376 377 1
284 376 378 1
285 376 379 1
286 380 381 1
287 380 382 1
288 380 383 1
289 384 385 1
290 384 386 1
291 384 387 1
292 388 389 1
293 388 390 1
294 388 391 1
295 392 393 1
296 392 394 1
297 392 395 1
298 396 397 1
299 396 398 1
300 396 399 1
301 400 401 1
302 400 402 1
303 400 403 1
