@<TRIPOS>MOLECULE
Molecule Name
127 96
SMALL
NO_CHARGES

@<TRIPOS>ATOM
1 C1	0.0000	0.0000	0.0000 C
2 H2	-1.0835	0.0000	0.0000 H
3 C3	0.7457	1.1053	0.0000 C
4 H4	0.2726	2.0824	0.0000 H
5 H5	1.8291	1.0747	-0.0000 H
6 O6	0.5011	-1.2693	0.0000 O
7 H7	1.4727	-1.2210	-0.0000 H
8 C8	3.9418	-3.3097	1.7575 C
9 H9	3.3167	-4.1653	1.4561 H
10 H10	4.8881	-3.5666	2.2598 H
11 O11	3.6072	-2.1504	1.5480 O
12 C12	4.9417	-1.1033	-1.8978 C
13 H13	5.2376	-2.1120	-2.2276 H
14 H14	5.7245	-0.3315	-1.9700 H
15 O15	3.8176	-0.8565	-1.4789 O
16 C16	2.9161	-4.0034	-0.2857 C
17 H17	3.0704	-5.0301	-0.6540 H
18 H18	2.2565	-3.9078	0.5916 H
19 O19	3.4426	-3.0331	-0.8160 O
20 C20	1.7008	-4.8744	-0.0000 C
21 H21	2.1323	-5.8788	0.1370 H
22 H22	0.6081	-4.8419	-0.1371 H
23 O23	2.3896	-3.8619	-0.0000 O
24 C24	5.1896	0.5135	-1.1702 C
25 H25	6.1376	-0.0308	-1.3072 H
26 H26	5.2830	1.6026	-1.0331 H
27 O27	4.1045	-0.0542	-1.1702 O
28 C28	1.4875	-2.6179	-3.1563 C
29 H29	0.3981	-2.6173	-2.9923 H
30 H30	1.8096	-2.5390	-4.2069 H
31 O31	2.2871	-2.7008	-2.2324 O
32 C32	1.5172	-2.9837	-2.6245 C
33 H33	1.0618	-2.6416	-3.5675 H
34 H34	0.8107	-3.3408	-1.8582 H
35 O35	2.7278	-2.9682	-2.4403 O
36 C36	1.7722	-3.9932	2.2040 C
37 H37	0.9657	-3.3609	1.7996 H
38 H38	1.4464	-4.9328	2.6782 H
39 O39	2.9520	-3.6731	2.1313 O
40 C40	1.3200	-3.8285	-1.4544 C
41 H41	1.7182	-4.5025	-0.6792 H
42 H42	0.2395	-3.9167	-1.6509 H
43 O43	2.0309	-3.0344	-2.0574 O
44 C44	0.7890	-2.8341	2.7025 C
45 H45	1.0737	-3.8895	2.8396 H
46 H46	-0.2880	-2.6469	2.5655 H
47 O47	1.6145	-1.9295	2.7025 O
48 C48	1.1916	-0.4985	-3.0544 C
49 H49	1.4245	0.4627	-3.5397 H
50 H50	0.1220	-0.6940	-2.8769 H
51 O51	2.0635	-1.2964	-2.7335 O
52 C52	2.1663	-2.0584	2.7653 C
53 H53	2.6499	-1.5259	3.5998 H
54 H54	1.0704	-1.9598	2.7106 H
55 O55	2.8044	-2.7161	1.9529 O
56 C56	-0.1299	-4.4668	2.0583 C
57 H57	-1.2061	-4.5966	2.2547 H
58 H58	0.1253	-3.7267	1.2831 H
59 O59	0.7256	-5.1026	2.6613 O
60 C60	1.6667	-4.5632	0.0874 C
61 H61	1.1812	-3.9234	-0.6667 H
62 H62	0.9849	-5.1640	0.7102 H
63 O63	2.8830	-4.6040	0.2240 O
64 C64	-0.1979	-2.9872	-2.8056 C
65 H65	-1.2715	-3.1435	-2.9974 H
66 H66	0.1693	-3.3548	-1.8341 H
67 O67	0.5381	-2.4414	-3.6181 O
68 C68	1.7150	-4.1117	-2.2112 C
69 H69	1.0609	-4.9859	-2.3580 H
70 H70	1.1983	-3.1631	-1.9946 H
71 O71	2.9350	-4.1892	-2.2839 O
72 C72	1.3217	-0.6737	3.1559 C
73 H73	0.5152	-0.0414	2.7516 H
74 H74	0.9959	-1.6133	3.6301 H
75 O75	2.5015	-0.3536	3.0832 O
76 C76	-1.5925	2.0403	2.8393 C
77 H77	-0.5252	2.2591	2.6754 H
78 H78	-1.9238	2.0532	3.8899 H
79 O79	-2.3593	1.7991	1.9154 O
80 C80	1.8045	-4.7652	1.2205 C
81 H81	1.1409	-5.5461	1.6249 H
82 H82	1.2972	-3.9098	0.7464 H
83 O83	3.0245	-4.8427	1.2933 O
84 C84	0.8809	-4.4534	0.3918 C
85 H85	-0.0903	-4.0106	0.1190 H
86 H86	1.7616	-4.0005	-0.0909 H
87 O87	0.9753	-5.3868	1.1790 O
88 C88	2.4441	-3.4368	2.2440 C
89 H89	1.5968	-4.0071	2.6569 H
90 H90	3.1960	-4.0305	1.6999 H
91 O91	2.5436	-2.2239	2.3807 O
92 C92	-3.6627	-1.3210	2.2408 C
93 H93	-3.9900	-1.2983	3.2925 H
94 H94	-3.6532	-2.3160	1.7678 H
95 O95	-3.3314	-0.3079	1.6378 O
96 C96	1.4921	0.9274	3.0055 C
97 H97	1.4576	2.0276	2.9578 H
98 H98	0.5990	0.4425	3.4310 H
99 O99	2.4585	0.2865	2.6119 O
100 C100	-2.6332	-2.8079	1.1541 C
101 H101	-2.3321	-1.8748	1.6564 H
102 H102	-1.8080	-3.4726	0.8528 H
103 O103	-3.8070	-3.0875	0.9447 O
104 C104	-2.2188	0.4687	-3.1737 C
105 H105	-2.2454	-0.4692	-3.7511 H
106 H106	-1.6183	1.2805	-3.6141 H
107 O107	-2.8169	0.6000	-2.1131 O
108 C108	1.8589	-0.4265	-3.3738 C
109 H109	1.6536	0.5622	-2.9334 H
110 H110	1.4902	-1.2893	-2.7963 H
111 O111	2.4570	-0.5578	-4.4343 O
112 C112	1.9580	5.5096	-0.9568 C
113 H113	3.0009	5.8372	-1.0938 H
114 H114	1.2208	6.3168	-0.8197 H
115 O115	1.6394	4.3271	-0.9568 O
116 C116	-0.8568	2.7776	3.4576 C
117 H117	-1.8539	3.2429	3.5123 H
118 H118	-0.7062	2.0742	2.6231 H
119 O119	0.0253	3.0258	4.2700 O
120 C120	0.9399	1.7310	3.3104 C
121 H121	1.8754	1.6603	2.7329 H
122 H122	0.1572	2.3691	2.8700 H
123 O123	0.7806	1.1398	4.3710 O
124 C124	-1.2771	1.8169	-3.5248 C
125 H125	-2.3523	1.9924	-3.6887 H
126 H126	-0.9720	1.6869	-2.4742 H
127 O127	-0.4746	1.7694	-4.4486 O
@<TRIPOS>BOND
1 1 2 1
2 1 3 2
3 1 6 1
4 3 4 1
5 3 5 1
6 6 7 1
7 8 9 1
8 8 10 1
9 8 11 2
10 12 13 1
11 12 14 1
12 12 15 2
13 16 17 1
14 16 18 1
15 16 19 2
16 20 21 1
17 20 22 1
18 20 23 2
19 24 25 1
20 24 26 1
21 24 27 2
22 28 29 1
23 28 30 1
24 28 31 2
25 32 33 1
26 32 34 1
27 32 35 2
28 36 37 1
29 36 38 1
30 36 39 2
31 40 41 1
32 40 42 1
33 40 43 2
34 44 45 1
35 44 46 1
36 44 47 2
37 48 49 1
38 48 50 1
39 48 51 2
40 52 53 1
41 52 54 1
42 52 55 2
43 56 57 1
44 56 58 1
45 56 59 2
46 60 61 1
47 60 62 1
48 60 63 2
49 64 65 1
50 64 66 1
51 64 67 2
52 68 69 1
53 68 70 1
54 68 71 2
55 72 73 1
56 72 74 1
57 72 75 2
58 76 77 1
59 76 78 1
60 76 79 2
61 80 81 1
62 80 82 1
63 80 83 2
64 84 85 1
65 84 86 1
66 84 87 2
67 88 89 1
68 88 90 1
69 88 91 2
70 92 93 1
71 92 94 1
72 92 95 2
73 96 97 1
74 96 98 1
75 96 99 2
76 100 101 1
77 100 102 1
78 100 103 2
79 104 105 1
80 104 106 1
81 104 107 2
82 108 109 1
83 108 110 1
84 108 111 2
85 112 113 1
86 112 114 1
87 112 115 2
88 116 117 1
89 116 118 1
90 116 119 2
91 120 121 1
92 120 122 1
93 120 123 2
94 124 125 1
95 124 126 1
96 124 127 2
